561
apolar
C -11.241 -15.101 -5.591
C -11.048 -17.05 -9.654
C -11.739 -14.698 -4.285
C -11.994 -15.583 -3.178
C -11.957 -13.29 -4.071
C -11.659 -17.047 -8.386
C -11.817 -17.387 -10.77
C -13.148 -17.734 -10.611
C -13.731 -17.735 -9.35
C -12.994 -17.38 -8.226
C -11.706 -12.369 -5.116
C -11.294 -12.799 -6.334
C -11.083 -14.143 -6.577
C -12.481 -15.052 -1.994
C -12.691 -13.694 -1.816
C -12.421 -12.824 -2.823
C -8.828 -17.516 -8.013
C -10.091 -17.513 -8.702
C -11.206 -15.267 -5.055
C -11.786 -14.737 -3.863
C -11.835 -13.316 -3.684
C -7.475 -17.733 -8.645
C -11.078 -17.258 -7.741
C -12.432 -17.212 -8.073
C -12.812 -17.424 -9.389
C -11.821 -17.677 -10.334
C -10.476 -17.72 -10.033
C -11.314 -12.48 -4.696
C -10.804 -13.014 -5.841
C -10.745 -14.394 -6.026
C -12.381 -12.795 -2.488
C -12.895 -13.63 -1.532
C -12.852 -15.01 -1.696
C -12.31 -15.559 -2.828
C -14.089 -18.171 -11.235
C -10.998 -16.338 -5.64
C -11.166 -14.942 -5.018
C -11.772 -14.771 -3.613
C -12.784 -15.36 -1.395
C -14.646 -18.656 -9.981
C -11.86 -13.32 -3.179
C -15.861 -19.379 -12.476
C -14.7 -18.538 -12.483
C -15.802 -19.492 -9.987
C -16.407 -19.854 -11.24
C -12.936 -17.334 -11.255
C -12.338 -16.967 -10.007
C -12.871 -17.435 -8.751
C -14.034 -18.284 -8.739
C -12.252 -15.773 -2.682
C -12.842 -13.981 -1.029
C -12.387 -12.943 -1.909
S -11.176 -12.272 -4.585
C -10.781 -13.719 -5.701
C -12.53 -14.56 -1.966
C -11.412 -13.484 -3.794
C -12.795 -13.287 -1.432
C -12.353 -12.103 -2.051
C -11.668 -12.181 -3.27
C -11.857 -14.654 -3.183
C -15.539 -13.58 -9.718
C -16.427 -12.488 -9.634
C -15.993 -11.33 -8.995
C -14.728 -11.263 -8.429
C -13.876 -12.342 -8.523
C -14.247 -13.539 -9.137
C -8.691 -16.648 -7.383
C -9.916 -15.759 -7.487
C -10.971 -14.183 -5.724
C -11.532 -14.384 -4.404
C -10.944 -16.337 -8.462
C -10.887 -12.872 -6.493
C -7.338 -19.693 -7.963
C -10.574 -16.67 -9.761
C -11.492 -17.22 -10.641
C -12.79 -17.456 -10.233
C -13.169 -17.145 -8.942
C -12.252 -16.597 -8.06
C -12.193 -12.525 -7.189
C -10.366 -11.722 -5.648
C -7.648 -19.31 -9.413
C -6.076 -20.538 -7.902
C -11.425 -13.312 -3.39
C -11.911 -14.473 -2.8
C -12.722 -14.359 -1.661
C -10.414 -10.966 -7.289
C -12.54 -11.942 -1.762
C -11.733 -12.054 -2.893
C -13.032 -13.094 -1.156
C -13.523 -12.521 -8.352
C -14.614 -11.701 -8.145
C -15.77 -11.909 -8.9
C -15.815 -12.918 -9.869
C -14.683 -13.722 -10.071
C -13.542 -13.518 -9.314
C -9.153 -16.709 -7.331
C -10.882 -15.17 -6.244
C -7.451 -18.005 -7.156
C -10.339 -15.781 -7.529
C -11.897 -13.871 -3.927
C -11.792 -15.277 -3.99
C -7.27 -19.221 -8.042
C -11.34 -16.418 -8.475
C -11.263 -15.914 -5.147
C -11.474 -13.118 -5.064
C -11.022 -13.754 -6.196
C -12.2 -16.045 -2.866
C -12.699 -15.439 -1.735
C -12.827 -14.024 -1.66
C -12.413 -13.259 -2.733
C -7.76 -19.229 -9.352
C -7.621 -20.352 -10.163
C -6.988 -21.49 -9.657
C -6.528 -21.503 -8.345
C -6.663 -20.37 -7.537
C -10.983 -16.574 -9.826
C -11.898 -17.184 -10.687
C -13.155 -17.622 -10.276
C -13.496 -17.457 -8.927
C -12.588 -16.873 -8.038
C -12.715 -14.418 -1.835
C -11.964 -14.604 -3.005
C -11.543 -13.48 -3.685
C -10.846 -11.009 -7.661
C -12.596 -11.992 -2.056
C -13.024 -13.136 -1.373
C -11.868 -12.184 -3.223
C -13.953 -12.612 -8.611
C -14.169 -13.729 -9.426
C -15.4 -13.855 -10.069
C -16.398 -12.885 -9.866
C -16.172 -11.779 -9.045
C -14.942 -11.654 -8.419
C -11.14 -15.001 -5.266
C -11.756 -14.607 -3.937
C -11.973 -13.143 -3.94
C -12.166 -15.333 -2.692
C -6.359 -16.905 -7.097
C -6.687 -18.338 -7.535
C -6.907 -19.302 -6.362
C -11.233 -16.845 -8.079
C -10.386 -16.884 -9.308
C -10.943 -17.184 -10.546
C -12.312 -17.451 -10.626
C -13.122 -17.414 -9.475
C -12.598 -17.113 -8.208
C -12.509 -12.447 -2.856
C -12.881 -13.167 -1.727
C -12.71 -14.565 -1.656
S -11.479 -12.453 -5.376
C -10.951 -13.925 -6.143
C -11.702 -17.167 -8.306
C -10.746 -16.828 -7.296
C -11.299 -15.157 -5.382
C -11.848 -14.881 -4.094
C -12.068 -13.52 -3.71
C -11.045 -16.585 -5.84
C -13.006 -17.888 -10.663
C -13.712 -17.775 -9.472
C -13.065 -17.422 -8.301
C -11.001 -17.292 -9.519
C -11.644 -17.624 -10.705
C -11.056 -14.111 -6.232
C -11.271 -12.792 -5.853
C -11.767 -12.496 -4.626
C -12.6 -13.246 -2.426
C -12.935 -14.258 -1.582
C -12.698 -15.575 -1.932
C -12.171 -15.891 -3.155
C -11.677 -15.702 -2.988
C -12.504 -13.282 -1.924
C -12.996 -14.489 -1.409
C -11.189 -14.5 -3.497
C -11.603 -13.289 -2.967
C -12.58 -15.71 -1.945
C -18.229 -6.688 -7.681
C -11.902 -15.76 -3.001
C -11.628 -17.221 -3.263
C -11.292 -14.756 -3.755
C -11.531 -13.412 -3.489
C -12.392 -13.059 -2.462
C -13.017 -14.053 -1.693
C -12.768 -15.398 -1.97
C -9.513 -17.113 -8.159
C -10.857 -17.325 -8.843
C -11.727 -13.509 -2.984
C -12.647 -15.902 -14.263
C -10.852 -17.509 -10.407
C -11.762 -15.067 -3.188
C -11.51 -15.006 -13.652
C -9.556 -16.936 -6.621
C -10.134 -14.839 -5.171
C -10.136 -13.284 -4.922
C -13.277 -13.813 -12.19
C -9.575 -17.467 -11.139
C -8.326 -17.26 -10.462
C -8.315 -17.092 -9.027
C -12.212 -17.38 -8.193
C -13.443 -17.592 -8.957
C -13.388 -17.765 -10.431
C -12.131 -17.725 -11.13
C -12.588 -15.886 -2.274
C -13.351 -15.238 -1.21
C -13.316 -13.758 -1.025
C -12.521 -12.905 -1.89
C -10.978 -15.649 -4.258
C -10.91 -12.702 -3.872
C -10.107 -15.207 -14.115
C -9.792 -16.221 -15.118
C -10.869 -17.073 -15.695
C -12.268 -16.921 -15.282
C -11.878 -14.012 -12.654
C -14.342 -14.693 -12.8
C -14.039 -15.695 -13.795
C -11.277 -15.656 -4.07
C -10.992 -13.316 -4.459
C -12.066 -15.359 -2.984
C -7.39 -20.171 -7.712
C -7.392 -18.975 -8.663
C -7.099 -16.509 -8.813
C -10.731 -14.627 -4.816
C -11.781 -13.011 -3.375
C -12.317 -14.045 -2.622
C -10.993 -17.227 -6.961
C -12.334 -17.091 -7.306
C -12.688 -17.123 -8.638
C -11.722 -17.289 -9.618
C -10.388 -17.414 -9.277
C -10.01 -17.391 -7.941
C -10.306 -17.457 -8.849
C -11.231 -15.328 -5.135
C -11.781 -14.81 -3.936
C -11.84 -13.399 -3.752
C -11.242 -17.168 -7.842
C -10.753 -17.53 -10.172
C -12.09 -17.333 -10.464
C -13.002 -17.053 -9.446
C -12.585 -16.975 -8.127
C -11.331 -12.555 -4.764
C -10.813 -13.08 -5.909
C -10.781 -14.454 -6.1
C -12.278 -15.651 -2.91
C -12.807 -15.088 -1.801
C -12.878 -13.73 -1.596
C -12.397 -12.893 -2.555
C -18.781 -6.673 -7.504
C -8.511 -16.584 -6.817
C -9.79 -15.799 -7.043
C -10.932 -14.306 -5.27
C -11.581 -14.56 -3.983
C -10.727 -16.436 -8.065
C -6.813 -19.128 -8.643
C -6.394 -19.313 -7.194
C -10.184 -16.871 -9.271
C -11.004 -17.39 -10.257
C -12.364 -17.529 -10.042
C -12.917 -17.129 -8.839
C -12.102 -16.57 -7.856
C -6.251 -18.108 -9.416
C -6.632 -17.935 -10.738
C -7.56 -18.794 -11.302
C -8.113 -19.815 -10.552
C -7.745 -19.974 -9.221
C -18.205 -0.385 -0.221
C -9.032 -17.276 -8.004
C -10.301 -17.215 -8.667
C -11.398 -15.009 -4.935
C -11.998 -14.531 -3.727
C -12.086 -13.126 -3.509
C -11.26 -16.909 -7.695
C -12.601 -16.758 -8.019
C -12.996 -16.92 -9.336
C -12.041 -17.211 -10.281
C -10.703 -17.37 -9.994
C -11.586 -12.245 -4.499
C -11.016 -12.73 -5.639
C -10.936 -14.096 -5.859
C -12.694 -12.652 -2.321
C -13.167 -13.524 -1.382
C -13.066 -14.89 -1.577
C -12.513 -15.392 -2.724
C -10.016 -15.562 -7.649
C -8.669 -16.26 -7.58
C -10.989 -13.937 -5.885
C -11.526 -14.103 -4.562
C -12.382 -15.108 -2.078
C -7.021 -17.983 -7.21
C -7.006 -19.235 -8.074
C -11.003 -16.266 -8.583
C -12.89 -15.637 -0.758
C -10.954 -12.608 -6.593
C -11.492 -17.288 -10.714
C -12.774 -17.583 -10.294
C -13.177 -17.22 -9.025
C -12.294 -16.58 -8.169
C -10.609 -16.643 -9.864
C -6.493 -21.572 -8.384
C -7.001 -21.527 -9.667
C -7.51 -20.342 -10.161
C -7.518 -19.204 -9.368
C -6.502 -20.436 -7.589
C -10.937 -13.742 -5.481
C -11.376 -14.856 -4.816
C -13.078 -14.869 -9.422
C -11.982 -14.62 -3.536
C -11.989 -13.239 -3.27
C -14.995 -13.379 -9.334
C -16.365 -13.006 -9.782
C -12.402 -14.062 -8.498
C -13.027 -12.923 -7.997
C -14.305 -12.592 -8.413
C -14.361 -14.518 -9.834
C -12.534 -12.737 -2.092
C -13.079 -13.611 -1.167
C -13.059 -14.955 -1.446
C -12.533 -15.49 -2.598
S -11.271 -12.323 -4.561
C -11.066 -13.152 -4.144
C -12.154 -15.148 -2.611
C -10.736 -14.466 -4.403
C -11.288 -15.472 -3.63
C -12.484 -13.827 -2.328
C -11.928 -12.812 -3.116
C -10.894 -13.851 -5.256
C -11.293 -14.977 -4.588
C -11.937 -14.672 -3.332
C -11.99 -13.285 -3.116
C -12.964 -15.117 -9.221
C -14.859 -13.636 -9.265
C -12.57 -12.757 -1.965
C -13.104 -13.612 -1.017
C -13.043 -14.965 -1.246
C -12.478 -15.524 -2.369
C -12.291 -14.276 -8.319
C -14.231 -14.803 -9.688
C -14.202 -12.798 -8.37
C -12.936 -13.112 -7.903
S -11.269 -12.394 -4.422
C -10.595 -11.073 -7.485
C -11.585 -13.582 -3.532
C -12.751 -14.511 -1.745
C -11.977 -14.739 -2.884
C -14.044 -13.748 -9.033
C -15.34 -13.819 -9.592
C -16.273 -12.774 -9.487
C -15.944 -11.595 -8.789
C -14.634 -11.473 -8.235
C -13.723 -12.545 -8.389
C -11.943 -12.296 -3.076
C -12.699 -12.081 -1.91
C -13.071 -13.266 -1.265
C -5.922 -17.723 -6.328
C -7.29 -19.405 -5.912
C -6.981 -19.07 -8.334
C -9.068 -16.602 -6.939
C -10.847 -15.283 -5.614
C -7.411 -17.964 -7.036
C -10.236 -15.628 -6.949
C -11.107 -14.036 -5.097
C -11.696 -14.072 -3.794
C -11.877 -15.382 -3.353
C -7.299 -19.058 -8.074
C -11.203 -16.162 -8.007
C -12.67 -13.287 -1.724
C -12.468 -15.675 -2.103
C -12.858 -14.622 -1.296
C -12.092 -12.983 -2.955
C -7.717 -18.837 -9.396
C -7.627 -19.868 -10.331
C -7.13 -21.116 -9.938
C -6.722 -21.358 -8.624
C -6.813 -20.318 -7.697
C -10.793 -16.117 -9.357
C -11.602 -16.606 -10.397
C -12.836 -17.189 -10.106
C -13.237 -17.264 -8.766
C -12.432 -16.777 -7.73
S -11.3 -16.545 -4.495
C -11.462 -16.078 -4.326
C -11.146 -16.945 -5.551
C -11.171 -14.718 -4.327
C -11.565 -13.893 -3.252
C -12.24 -14.414 -2.181
C -12.531 -15.763 -2.153
C -12.143 -16.603 -3.216
C -8.73 -16.71 -7.825
C -7.132 -18.131 -7.573
C -10.69 -13.943 -6.362
C -9.894 -15.756 -8.036
C -11.255 -13.983 -5.036
C -6.989 -19.367 -8.485
C -10.941 -16.342 -8.989
C -12.321 -14.773 -2.546
C -6.782 -21.624 -10.164
C -10.386 -12.686 -7.139
C -7.38 -19.313 -9.819
C -7.282 -20.424 -10.638
C -6.383 -21.681 -8.831
C -6.491 -20.575 -8.001
C -12.249 -16.573 -8.575
C -13.178 -17.128 -9.443
C -12.815 -17.46 -10.733
C -11.516 -17.248 -11.152
C -10.583 -16.697 -10.287
C -9.004 -17.625 -7.986
C -11.374 -15.711 -4.903
C -10.27 -17.69 -8.627
C -11.916 -15.285 -3.677
C -11.936 -13.899 -3.586
C -7.685 -17.778 -8.657
C -11.234 -17.528 -7.632
C -10.693 -17.891 -9.924
C -12.044 -17.876 -10.211
C -12.989 -17.776 -9.196
C -12.597 -17.527 -7.9
C -12.426 -13.265 -2.468
C -12.92 -14.021 -1.443
C -12.916 -15.366 -1.58
C -12.398 -16.033 -2.635
S -11.299 -13.169 -4.994
C -11.001 -14.674 -5.689
C -11.192 -14.994 -5.046
C -11.791 -14.627 -3.724
C -11.911 -13.173 -3.645
C -12.238 -15.401 -2.596
C -7.702 -15.105 -10.153
C -6.306 -14.582 -9.756
C -12.755 -17.144 -8.134
C -13.249 -17.424 -9.382
C -12.369 -17.46 -10.601
C -11.017 -17.217 -10.553
C -10.41 -16.904 -9.211
C -11.284 -16.868 -8.002
C -12.446 -12.57 -2.503
C -12.885 -13.339 -1.402
C -12.781 -14.745 -1.449
S -11.345 -12.393 -5.04
C -10.926 -13.832 -5.814
C 3.636 -28.2 -0.322
C -10.559 -15.84 -5.26
C -11.196 -14.699 -3.099
C -13.042 -14.45 -1.552
C -5.258 -18.258 -7.222
C -3.266 -16.747 -5.827
C -10.224 -15.577 -3.819
C -6.486 -20.515 -7.726
C -11.229 -13.342 -3.401
C -12.177 -12.523 -2.683
C -13.031 -13.084 -1.77
C -12.129 -15.274 -2.198
C -4.622 -17.171 -7.839
C -3.635 -16.415 -7.154
C -3.891 -17.873 -5.219
C -4.857 -18.615 -5.911
C -8.805 -17.74 -8.057
C -10.045 -17.659 -8.787
C -11.228 -15.228 -5.162
C -11.778 -14.694 -3.949
C -11.808 -13.276 -3.765
C -11.046 -17.291 -7.873
C -12.371 -17.135 -8.267
C -12.709 -17.354 -9.593
C -11.713 -17.716 -10.479
C -10.388 -17.871 -10.123
C -11.286 -12.441 -4.783
C -10.776 -12.974 -5.928
C -10.75 -14.351 -6.118
C -12.34 -12.748 -2.561
C -12.833 -13.573 -1.592
C -12.825 -14.957 -1.769
C -12.305 -15.51 -2.907
C -10.888 -16.348 -6.022
C -15.108 -18.524 -10.095
C -10.934 -14.912 -5.514
C -11.457 -13.172 -3.929
C -12.394 -14.779 -1.972
C -11.466 -14.562 -4.168
C -14.455 -17.988 -8.881
C -16.357 -19.165 -10.065
C -16.956 -19.652 -11.218
C -16.296 -19.467 -12.429
C -15.056 -18.838 -12.482
C -14.457 -18.355 -11.325
C -11.914 -12.592 -2.741
C -12.392 -13.403 -1.722
C -11.947 -15.362 -3.133
C -10.577 -13.787 -6.18
S -10.835 -12.337 -5.3
C -10.631 -16.043 -5.311
C -11.299 -14.725 -3.185
C -13.053 -14.495 -1.585
C -5.718 -18.627 -7.858
C -3.492 -17.492 -6.472
C -10.305 -15.535 -3.922
C -7.516 -20.522 -8.679
C -11.348 -13.364 -3.458
C -12.281 -12.579 -2.743
C -13.125 -13.122 -1.791
C -12.169 -15.319 -2.27
C -5.213 -19.22 -6.661
C -4.104 -18.697 -5.989
C -4.035 -16.873 -7.631
C -5.13 -17.428 -8.303
C -14.749 -17.859 -9.809
C -15.974 -18.443 -9.457
C -16.814 -19.012 -10.419
C -16.398 -19.091 -11.752
C -15.172 -18.528 -12.109
C -14.315 -17.949 -11.141
C -11.142 -13.608 -5.048
C -13.048 -14.733 -9.193
C -11.472 -14.745 -4.409
C -12.153 -14.442 -3.185
C -12.292 -13.053 -2.937
C -14.91 -13.263 -9.243
C -16.251 -12.983 -9.758
C -12.389 -13.872 -8.288
C -13.038 -12.688 -7.859
C -14.277 -12.384 -8.328
C -14.264 -14.434 -9.721
C -12.916 -12.471 -1.86
C -13.398 -13.335 -0.94
C -13.215 -14.728 -1.196
C -12.708 -15.335 -2.273
S -11.562 -12.149 -4.237
C -11.084 -13.017 -4.249
C -11.995 -15.103 -2.727
C -10.659 -14.305 -4.521
C -11.119 -15.351 -3.754
C -12.429 -13.81 -2.436
C -11.961 -12.753 -3.214
C -10.544 -11.102 -7.514
C -11.382 -13.221 -3.428
C -12.669 -14.45 -1.805
C -11.835 -14.424 -2.909
C -11.765 -12.033 -2.829
C -12.599 -12.049 -1.72
C -13.054 -13.258 -1.21
C -13.816 -12.615 -8.188
C -14.825 -11.689 -7.988
C -16.066 -11.875 -8.568
C -16.298 -12.995 -9.358
C -15.288 -13.925 -9.564
C -14.04 -13.736 -8.977
C -8.995 -17.146 -8.241
C -10.272 -17.239 -8.888
C -11.384 -15.094 -5.13
C -11.937 -14.624 -3.896
C -11.992 -13.22 -3.652
C -11.25 -17.046 -7.905
C -12.605 -17.072 -8.214
C -12.992 -17.293 -9.528
C -12.014 -17.485 -10.481
C -10.665 -17.462 -10.206
C -11.512 -12.332 -4.646
C -10.992 -12.81 -5.81
C -10.925 -14.175 -6.048
C -12.553 -12.755 -2.439
C -13.015 -13.633 -1.502
C -12.959 -15.0 -1.726
C -12.434 -15.493 -2.888
