350
apolar
C -11.241 -15.101 -5.591
C -11.048 -17.05 -9.654
C -11.739 -14.698 -4.285
C -11.994 -15.583 -3.178
C -11.957 -13.29 -4.071
C -11.659 -17.047 -8.386
C -11.817 -17.387 -10.77
C -13.148 -17.734 -10.611
C -13.731 -17.735 -9.35
C -12.994 -17.38 -8.226
C -11.706 -12.369 -5.116
C -11.294 -12.799 -6.334
C -11.083 -14.143 -6.577
C -12.481 -15.052 -1.994
C -12.691 -13.694 -1.816
C -12.421 -12.824 -2.823
C -8.828 -17.516 -8.013
C -10.091 -17.513 -8.702
C -11.206 -15.267 -5.055
C -11.786 -14.737 -3.863
C -11.835 -13.316 -3.684
C -7.475 -17.733 -8.645
C -11.078 -17.258 -7.741
C -12.432 -17.212 -8.073
C -12.812 -17.424 -9.389
C -11.821 -17.677 -10.334
C -10.476 -17.72 -10.033
C -11.314 -12.48 -4.696
C -10.804 -13.014 -5.841
C -10.745 -14.394 -6.026
C -12.381 -12.795 -2.488
C -12.895 -13.63 -1.532
C -12.852 -15.01 -1.696
C -12.31 -15.559 -2.828
C -8.691 -16.648 -7.383
C -9.916 -15.759 -7.487
C -10.971 -14.183 -5.724
C -11.532 -14.384 -4.404
C -10.944 -16.337 -8.462
C -10.887 -12.872 -6.493
C -7.338 -19.693 -7.963
C -11.397 -15.754 -4.116
C -11.84 -16.294 -2.914
C -12.43 -15.464 -1.976
C -12.557 -14.123 -2.27
C -12.12 -13.551 -3.449
C -10.574 -16.67 -9.761
C -11.492 -17.22 -10.641
C -12.79 -17.456 -10.233
C -13.169 -17.145 -8.942
C -12.252 -16.597 -8.06
C -12.193 -12.525 -7.189
C -10.366 -11.722 -5.648
C -7.648 -19.31 -9.413
C -6.076 -20.538 -7.902
C -9.153 -16.709 -7.331
C -10.882 -15.17 -6.244
C -7.451 -18.005 -7.156
C -10.339 -15.781 -7.529
C -11.897 -13.871 -3.927
C -11.792 -15.277 -3.99
C -7.27 -19.221 -8.042
C -11.34 -16.418 -8.475
C -11.263 -15.914 -5.147
C -11.474 -13.118 -5.064
C -11.022 -13.754 -6.196
C -12.2 -16.045 -2.866
C -12.699 -15.439 -1.735
C -12.827 -14.024 -1.66
C -12.413 -13.259 -2.733
C -7.76 -19.229 -9.352
C -7.621 -20.352 -10.163
C -6.988 -21.49 -9.657
C -6.528 -21.503 -8.345
C -6.663 -20.37 -7.537
C -10.983 -16.574 -9.826
C -11.898 -17.184 -10.687
C -13.155 -17.622 -10.276
C -13.496 -17.457 -8.927
C -12.588 -16.873 -8.038
C -11.702 -17.167 -8.306
C -10.746 -16.828 -7.296
C -11.299 -15.157 -5.382
C -11.848 -14.881 -4.094
C -12.068 -13.52 -3.71
C -11.045 -16.585 -5.84
C -13.006 -17.888 -10.663
C -13.712 -17.775 -9.472
C -13.065 -17.422 -8.301
C -11.001 -17.292 -9.519
C -11.644 -17.624 -10.705
C -11.056 -14.111 -6.232
C -11.271 -12.792 -5.853
C -11.767 -12.496 -4.626
C -12.6 -13.246 -2.426
C -12.935 -14.258 -1.582
C -12.698 -15.575 -1.932
C -12.171 -15.891 -3.155
C -10.306 -17.457 -8.849
C -11.231 -15.328 -5.135
C -11.781 -14.81 -3.936
C -11.84 -13.399 -3.752
C -11.242 -17.168 -7.842
C -10.753 -17.53 -10.172
C -12.09 -17.333 -10.464
C -13.002 -17.053 -9.446
C -12.585 -16.975 -8.127
C -11.331 -12.555 -4.764
C -10.813 -13.08 -5.909
C -10.781 -14.454 -6.1
C -12.278 -15.651 -2.91
C -12.807 -15.088 -1.801
C -12.878 -13.73 -1.596
C -12.397 -12.893 -2.555
C -8.511 -16.584 -6.817
C -9.79 -15.799 -7.043
C -10.932 -14.306 -5.27
C -11.581 -14.56 -3.983
C -10.727 -16.436 -8.065
C -6.813 -19.128 -8.643
C -6.394 -19.313 -7.194
C -11.475 -15.935 -3.725
C -12.002 -16.508 -2.578
C -12.634 -15.69 -1.657
C -12.726 -14.319 -1.915
C -12.194 -13.74 -3.045
C -10.184 -16.871 -9.271
C -11.004 -17.39 -10.257
C -12.364 -17.529 -10.042
C -12.917 -17.129 -8.839
C -12.102 -16.57 -7.856
C -6.251 -18.108 -9.416
C -6.632 -17.935 -10.738
C -7.56 -18.794 -11.302
C -8.113 -19.815 -10.552
C -7.745 -19.974 -9.221
C -9.032 -17.276 -8.004
C -10.301 -17.215 -8.667
C -11.398 -15.009 -4.935
C -11.998 -14.531 -3.727
C -12.086 -13.126 -3.509
C -11.26 -16.909 -7.695
C -12.601 -16.758 -8.019
C -12.996 -16.92 -9.336
C -12.041 -17.211 -10.281
C -10.703 -17.37 -9.994
C -11.586 -12.245 -4.499
C -11.016 -12.73 -5.639
C -10.936 -14.096 -5.859
C -12.694 -12.652 -2.321
C -13.167 -13.524 -1.382
C -13.066 -14.89 -1.577
C -12.513 -15.392 -2.724
C -10.016 -15.562 -7.649
C -8.669 -16.26 -7.58
C -10.989 -13.937 -5.885
C -11.526 -14.103 -4.562
C -12.382 -15.108 -2.078
C -7.021 -17.983 -7.21
C -7.006 -19.235 -8.074
C -11.003 -16.266 -8.583
C -12.89 -15.637 -0.758
C -10.954 -12.608 -6.593
C -11.418 -15.47 -4.246
C -11.848 -15.975 -3.028
C -12.497 -13.753 -2.385
C -12.064 -13.247 -3.604
C -11.492 -17.288 -10.714
C -12.774 -17.583 -10.294
C -13.177 -17.22 -9.025
C -12.294 -16.58 -8.169
C -10.609 -16.643 -9.864
C -6.493 -21.572 -8.384
C -7.001 -21.527 -9.667
C -7.51 -20.342 -10.161
C -7.518 -19.204 -9.368
C -6.502 -20.436 -7.589
C -10.937 -13.742 -5.481
C -11.376 -14.856 -4.816
C -13.078 -14.869 -9.422
C -11.982 -14.62 -3.536
C -11.989 -13.239 -3.27
C -14.995 -13.379 -9.334
C -16.365 -13.006 -9.782
C -12.402 -14.062 -8.498
C -13.027 -12.923 -7.997
C -14.305 -12.592 -8.413
C -14.361 -14.518 -9.834
C -12.534 -12.737 -2.092
C -13.079 -13.611 -1.167
C -13.059 -14.955 -1.446
C -12.533 -15.49 -2.598
S -11.271 -12.323 -4.561
C -9.068 -16.602 -6.939
C -10.847 -15.283 -5.614
C -7.411 -17.964 -7.036
C -10.236 -15.628 -6.949
C -11.107 -14.036 -5.097
C -11.696 -14.072 -3.794
C -11.877 -15.382 -3.353
C -7.299 -19.058 -8.074
C -11.203 -16.162 -8.007
C -12.67 -13.287 -1.724
C -12.468 -15.675 -2.103
C -12.858 -14.622 -1.296
C -12.092 -12.983 -2.955
C -7.717 -18.837 -9.396
C -7.627 -19.868 -10.331
C -7.13 -21.116 -9.938
C -6.722 -21.358 -8.624
C -6.813 -20.318 -7.697
C -10.793 -16.117 -9.357
C -11.602 -16.606 -10.397
C -12.836 -17.189 -10.106
C -13.237 -17.264 -8.766
C -12.432 -16.777 -7.73
S -11.3 -16.545 -4.495
C -11.462 -16.078 -4.326
C -11.146 -16.945 -5.551
C -11.171 -14.718 -4.327
C -11.565 -13.893 -3.252
C -12.24 -14.414 -2.181
C -12.531 -15.763 -2.153
C -12.143 -16.603 -3.216
C -8.73 -16.71 -7.825
C -7.132 -18.131 -7.573
C -10.69 -13.943 -6.362
C -9.894 -15.756 -8.036
C -11.255 -13.983 -5.036
C -6.989 -19.367 -8.485
C -10.941 -16.342 -8.989
C -12.321 -14.773 -2.546
C -6.782 -21.624 -10.164
C -10.386 -12.686 -7.139
C -11.356 -15.339 -4.677
C -11.691 -13.027 -4.121
C -12.21 -13.423 -2.896
C -11.879 -15.734 -3.449
C -7.38 -19.313 -9.819
C -7.282 -20.424 -10.638
C -6.383 -21.681 -8.831
C -6.491 -20.575 -8.001
C -12.249 -16.573 -8.575
C -13.178 -17.128 -9.443
C -12.815 -17.46 -10.733
C -11.516 -17.248 -11.152
C -10.583 -16.697 -10.287
C -9.004 -17.625 -7.986
C -11.374 -15.711 -4.903
C -10.27 -17.69 -8.627
C -11.916 -15.285 -3.677
C -11.936 -13.899 -3.586
C -7.685 -17.778 -8.657
C -11.234 -17.528 -7.632
C -10.693 -17.891 -9.924
C -12.044 -17.876 -10.211
C -12.989 -17.776 -9.196
C -12.597 -17.527 -7.9
C -12.426 -13.265 -2.468
C -12.92 -14.021 -1.443
C -12.916 -15.366 -1.58
C -12.398 -16.033 -2.635
S -11.299 -13.169 -4.994
C -11.001 -14.674 -5.689
C -10.559 -15.84 -5.26
C -11.196 -14.699 -3.099
C -13.042 -14.45 -1.552
C -5.258 -18.258 -7.222
C -3.266 -16.747 -5.827
C -10.224 -15.577 -3.819
C -6.486 -20.515 -7.726
C -11.229 -13.342 -3.401
C -12.177 -12.523 -2.683
C -13.031 -13.084 -1.77
C -12.129 -15.274 -2.198
C -4.622 -17.171 -7.839
C -3.635 -16.415 -7.154
C -3.891 -17.873 -5.219
C -4.857 -18.615 -5.911
C -8.805 -17.74 -8.057
C -10.045 -17.659 -8.787
C -11.228 -15.228 -5.162
C -11.778 -14.694 -3.949
C -11.808 -13.276 -3.765
C -11.046 -17.291 -7.873
C -12.371 -17.135 -8.267
C -12.709 -17.354 -9.593
C -11.713 -17.716 -10.479
C -10.388 -17.871 -10.123
C -11.286 -12.441 -4.783
C -10.776 -12.974 -5.928
C -10.75 -14.351 -6.118
C -12.34 -12.748 -2.561
C -12.833 -13.573 -1.592
C -12.825 -14.957 -1.769
C -12.305 -15.51 -2.907
C -10.631 -16.043 -5.311
C -11.299 -14.725 -3.185
C -13.053 -14.495 -1.585
C -5.718 -18.627 -7.858
C -3.492 -17.492 -6.472
C -10.305 -15.535 -3.922
C -7.516 -20.522 -8.679
C -11.348 -13.364 -3.458
C -12.281 -12.579 -2.743
C -13.125 -13.122 -1.791
C -12.169 -15.319 -2.27
C -5.213 -19.22 -6.661
C -4.104 -18.697 -5.989
C -4.035 -16.873 -7.631
C -5.13 -17.428 -8.303
C -14.749 -17.859 -9.809
C -15.974 -18.443 -9.457
C -16.814 -19.012 -10.419
C -16.398 -19.091 -11.752
C -15.172 -18.528 -12.109
C -14.315 -17.949 -11.141
C -11.142 -13.608 -5.048
C -13.048 -14.733 -9.193
C -11.472 -14.745 -4.409
C -12.153 -14.442 -3.185
C -12.292 -13.053 -2.937
C -14.91 -13.263 -9.243
C -16.251 -12.983 -9.758
C -12.389 -13.872 -8.288
C -13.038 -12.688 -7.859
C -14.277 -12.384 -8.328
C -14.264 -14.434 -9.721
C -12.916 -12.471 -1.86
C -13.398 -13.335 -0.94
C -13.215 -14.728 -1.196
C -12.708 -15.335 -2.273
S -11.562 -12.149 -4.237
C -8.995 -17.146 -8.241
C -10.272 -17.239 -8.888
C -11.384 -15.094 -5.13
C -11.937 -14.624 -3.896
C -11.992 -13.22 -3.652
C -11.25 -17.046 -7.905
C -12.605 -17.072 -8.214
C -12.992 -17.293 -9.528
C -12.014 -17.485 -10.481
C -10.665 -17.462 -10.206
C -11.512 -12.332 -4.646
C -10.992 -12.81 -5.81
C -10.925 -14.175 -6.048
C -12.553 -12.755 -2.439
C -13.015 -13.633 -1.502
C -12.959 -15.0 -1.726
C -12.434 -15.493 -2.888
