447
acceptor
O -24.926 -20.491 -22.279
O -26.232 -18.011 -21.793
O -24.825 -18.759 -18.503
O -27.483 -17.73 -18.487
O -23.499 -23.118 -19.748
O -6.61 -17.514 -5.834
O -8.653 -18.157 -4.64
O -8.221 -18.999 -6.928
O -23.023 -18.729 -22.752
O -24.258 -16.253 -21.943
O -23.689 -17.968 -18.736
O -24.951 -15.088 -18.29
O -21.655 -21.709 -21.968
O -7.454 -15.228 -8.206
O -8.012 -16.297 -6.3
C -8.237 -15.964 -7.563
O -7.519 -19.178 -10.522
O -7.052 -16.62 -5.733
O -8.421 -17.894 -4.564
F -12.195 -17.862 -11.644
C -8.117 -17.183 -5.611
O -8.26 -15.846 -5.867
O -9.087 -17.434 -4.026
O -9.129 -18.237 -6.436
O -10.631 -15.677 -7.955
O -18.017 -5.218 -5.879
N -11.974 -11.248 -8.225
O -9.283 -11.508 -5.989
O -13.077 -13.963 -6.494
O -8.806 -9.89 -8.215
O -10.598 -8.958 -9.005
O -17.708 -12.482 -10.16
O -16.848 -10.276 -8.933
C -10.031 -9.795 -8.286
O -7.082 -15.286 -8.574
O -9.615 -18.578 -6.174
F -13.144 -13.316 -1.346
O -15.993 -13.508 -12.718
O -12.817 -13.934 -6.034
O -8.302 -9.944 -7.477
O -9.9 -9.113 -8.78
O -9.132 -11.512 -5.392
C -9.49 -9.856 -7.845
O -9.547 -18.69 -5.927
O -7.203 -15.911 -8.63
O 8.358 -20.143 9.863
O 10.089 -21.574 8.009
O 7.257 -23.905 8.306
O 9.751 -25.189 8.748
O 4.154 -19.773 11.069
O 14.609 -20.035 7.775
O 14.446 -18.483 10.19
O 11.1 -20.012 9.992
O 10.387 -17.962 11.281
O 12.13 -21.871 5.558
O -17.613 -13.007 -10.464
O -13.066 -14.032 -6.353
O -10.535 -9.224 -9.195
O -8.739 -9.782 -7.933
O -9.421 -11.497 -5.906
C -9.981 -9.862 -8.266
N -9.128 -16.609 -8.913
O -9.211 -19.348 -6.475
O 14.763 -19.511 9.159
O 13.89 -17.55 11.011
O 10.751 -19.303 10.257
O 9.813 -17.663 12.284
O 12.545 -22.12 6.845
O 8.385 -20.428 10.687
O 10.226 -21.6 8.863
O 7.595 -24.108 9.031
O 10.065 -25.262 9.264
O 5.084 -22.241 12.438
O -7.687 -15.311 -7.996
O -7.841 -16.643 -6.15
O -7.649 -18.869 -8.99
C -8.269 -16.288 -7.264
O -14.509 -15.047 0.327
O -6.533 -42.677 14.872
O -4.357 -41.706 14.257
O -5.218 -43.526 13.009
S -5.112 -42.987 14.36
O -4.498 -43.932 15.289
O -17.801 -8.657 -9.918
O -19.962 -8.438 -9.91
O -19.903 -5.907 -9.187
O -18.728 -5.239 -5.889
O -17.83 -4.325 -7.669
C -18.82 -7.992 -9.698
C -18.266 -5.322 -7.039
O 8.715 -20.759 10.141
O 10.237 -21.642 7.856
O 7.582 -24.13 8.111
O 10.236 -25.171 7.964
O 5.875 -22.031 12.07
O -9.524 -19.304 -3.992
O 8.367 -20.454 10.661
O 10.165 -21.509 8.501
O 7.522 -24.013 8.841
O 9.955 -25.026 9.253
O 4.133 -20.553 11.745
O 14.455 -19.452 8.381
O 13.987 -17.732 10.565
O 11.522 -20.245 10.957
O 9.675 -18.534 11.959
O 11.608 -21.359 6.035
O 8.097 -20.144 10.826
O 10.113 -21.322 9.17
O 7.372 -23.78 8.943
O 9.461 -24.841 7.138
O 4.561 -21.793 12.09
O -23.079 -18.46 -22.63
O -24.344 -16.06 -21.58
O -22.726 -17.337 -18.553
O -25.006 -15.498 -18.46
O -22.272 -21.766 -19.879
O -17.846 -5.545 -5.853
O -20.973 -11.261 14.689
O -19.772 -11.844 12.681
O -20.353 -9.549 13.107
S -20.793 -10.948 13.259
O -22.078 -11.132 12.558
O -8.826 -18.036 -4.321
O -7.046 -17.765 -6.177
O -8.598 -19.356 -6.477
O -8.554 -14.735 -7.015
O -8.28 -11.877 -5.298
O -14.388 -11.827 -11.442
O 14.578 -19.872 7.763
O 14.297 -18.279 10.072
O 10.96 -19.845 9.838
O 10.305 -18.175 11.831
O 11.729 -21.637 5.438
O 3.187 -28.434 -1.073
O -23.093 -18.281 -22.715
O -24.353 -15.873 -21.874
O -23.467 -17.423 -18.649
O -24.753 -15.032 -17.762
O -22.271 -21.517 -20.644
O -7.436 -14.85 -7.164
O -8.194 -14.327 -9.162
O -8.192 -17.465 -5.067
O -14.177 -15.487 -0.11
C -7.589 -15.174 -8.315
O -23.367 -18.475 -22.484
O -24.106 -15.81 -21.662
O -23.065 -17.329 -18.47
O -25.192 -15.47 -18.216
O -22.217 -21.864 -19.622
O 14.368 -19.017 9.082
O 14.561 -20.347 11.68
O 11.061 -20.321 10.806
O 12.75 -21.779 13.557
O 10.822 -19.43 6.215
O 7.98 -19.829 10.557
O 10.05 -20.99 8.954
O 7.623 -23.745 9.123
O 9.617 -25.174 8.234
O 4.808 -22.536 12.325
O -23.806 -18.96 -22.417
O -24.279 -16.116 -21.951
O -22.926 -17.359 -18.763
O -24.717 -15.471 -18.175
O -21.134 -21.649 -20.036
O -14.371 -11.46 -10.058
O -7.081 -17.212 -5.878
O -8.656 -18.338 -4.81
F -13.305 -15.91 -0.841
C -8.222 -17.58 -5.796
O -30.229 -23.309 11.368
O -27.18 -24.717 11.286
O -28.524 -27.287 10.027
O -17.611 -8.428 -9.973
O -19.772 -8.537 -9.79
O -19.721 -5.712 -9.477
O -18.34 -5.24 -5.684
O -17.402 -4.731 -7.594
C -18.694 -7.927 -9.633
C -18.13 -5.466 -6.886
O -17.913 -5.558 -6.023
O -18.665 1.012 9.306
O -17.45 -0.727 7.938
O -17.21 -1.556 10.593
O -17.422 -13.435 -12.595
O -6.247 -16.898 -6.702
O -6.946 -14.925 -7.492
O -9.265 -18.764 -6.109
F -13.351 -13.522 -1.026
O -20.918 -4.598 1.053
O -17.049 1.905 -0.464
O -16.817 0.34 -2.303
O -15.712 -0.097 -0.18
S -16.898 0.47 -0.829
O -8.292 -19.948 -6.874
O -7.648 -21.422 -8.736
O -7.234 -16.477 -5.571
O -8.717 -17.796 -4.562
F -12.439 -17.376 -11.573
C -8.299 -17.042 -5.56
O -9.278 -18.362 -6.475
O -7.234 -14.66 -8.645
O -13.184 -9.66 -9.508
O 2.49 -31.557 -1.089
O 4.073 -29.011 0.995
O 3.196 -27.536 -1.238
O -10.155 -12.231 -7.384
O -8.922 -14.327 -6.928
N -18.949 -12.296 -10.626
F -13.59 -15.808 -0.539
O -14.407 -15.272 0.158
O -23.041 -15.352 -21.182
O -22.59 -17.654 -22.965
O -21.313 -18.577 -19.702
O -21.622 -21.121 -21.604
O -24.389 -14.493 -17.984
O 7.927 -20.029 10.58
O 9.482 -20.989 8.322
O 7.466 -23.903 9.19
O 10.155 -24.559 9.525
O 3.76 -20.743 12.228
O -18.174 -5.194 -5.894
O 8.4 -20.602 10.723
O 10.112 -21.474 8.386
O 7.573 -24.06 8.659
O 10.152 -24.977 8.755
O 4.295 -20.336 11.606
O 7.892 -20.044 10.529
O 9.647 -20.867 8.35
O 7.337 -23.672 8.681
O 10.021 -24.495 9.136
O 3.779 -20.255 11.737
O -16.654 -17.095 18.472
O -14.575 -17.553 19.702
O -16.173 -19.382 19.24
O -27.843 -22.443 -14.071
O -29.005 -20.609 -15.105
O -27.251 -20.184 -13.514
S -28.361 -21.082 -13.863
O -29.347 -21.091 -12.764
O -8.832 -14.433 -6.679
O -10.109 -12.386 -7.225
O -10.912 -16.314 -10.298
O -13.148 -17.263 -10.696
O -16.745 -12.221 -9.616
O -16.8 -14.317 -10.386
F -13.567 -15.802 -0.313
O 14.769 -20.541 6.706
O 15.439 -21.053 9.474
O 11.802 -21.297 9.413
O 12.298 -21.484 12.199
O 11.462 -20.323 4.83
O -24.399 -19.466 -22.406
O -26.293 -17.351 -21.624
O -24.796 -18.547 -18.362
O -27.39 -17.688 -18.413
O -21.152 -19.049 -20.656
O 8.239 -20.393 10.814
O 10.081 -21.375 8.685
O 7.613 -24.044 9.056
O 10.017 -24.719 6.989
O 4.149 -20.48 11.964
O -24.563 -19.587 -22.383
O -26.055 -17.117 -21.667
O -24.714 -18.368 -18.462
O -27.055 -17.869 -18.102
O -20.987 -19.267 -20.673
O -10.14 -9.398 -9.121
O -8.44 -9.965 -7.723
O -9.291 -11.565 -5.672
O -12.996 -13.899 -6.211
O -19.188 -11.032 -9.866
C -9.664 -9.988 -8.097
O -8.474 -18.604 -4.47
O -8.803 -18.795 -6.625
O -6.25 -20.081 -6.733
O -4.67 -17.432 -8.328
O -3.889 -18.871 -6.827
C -8.041 -18.796 -5.629
C -4.74 -18.034 -7.225
O -4.099 -17.279 15.852
O -2.184 -15.886 15.433
O -2.909 -16.309 17.696
S -3.356 -16.092 16.306
O -4.231 -14.905 16.248
O -27.273 -5.418 -15.232
O -26.67 -3.216 -14.475
O -28.444 -4.431 -13.377
S -27.789 -4.157 -14.672
O -28.766 -3.567 -15.606
O -23.464 -18.397 -22.269
O -23.799 -15.702 -21.453
O -22.988 -17.38 -18.309
O -25.32 -15.566 -18.384
O -22.259 -21.751 -19.761
O -28.571 -20.998 -15.559
O -26.577 -20.302 -14.36
O -26.806 -22.615 -15.075
S -27.534 -21.41 -14.586
O -28.135 -21.785 -13.285
O -8.751 -18.754 -4.171
O -9.405 -18.288 -6.197
O -7.625 -16.369 -7.425
O -6.39 -16.565 -5.648
O -7.35 -17.442 -9.99
O -9.093 -18.138 -8.841
O -5.173 -18.672 -6.855
C -8.568 -18.763 -5.401
C -6.898 -17.057 -6.675
C -7.877 -18.151 -9.108
O 7.357 -19.661 10.701
O 9.542 -20.574 9.053
O 7.347 -23.53 9.204
O 9.713 -24.29 7.462
O 4.14 -21.308 12.311
O -9.457 -18.78 -5.793
O -7.167 -15.638 -8.207
O -24.768 -19.4 -22.304
O -25.906 -16.733 -21.579
O -25.096 -18.499 -18.453
O -27.558 -17.426 -18.267
O -21.912 -21.861 -21.234
O -18.075 -5.335 -5.778
O -8.997 -18.03 -4.57
O -9.94 -19.207 -6.445
O -9.312 -18.624 -6.335
O -6.633 -16.186 -9.065
O -9.175 -12.071 -9.932
O -8.399 -18.384 -4.66
O -6.491 -19.969 -7.098
O -5.603 -17.051 -6.625
O -3.962 -19.079 -7.579
O -8.349 -17.975 -6.857
O -3.283 -19.392 -5.484
C -7.859 -18.449 -5.799
C -4.106 -18.947 -6.335
O 8.242 -20.735 11.17
O 10.23 -22.023 9.528
O 7.554 -24.388 9.297
O 9.962 -25.454 9.738
O 4.267 -20.076 11.123
O -7.708 -19.271 -10.48
O -7.194 -16.824 -5.819
O -8.591 -17.863 -4.543
F -13.363 -16.088 -0.587
C -8.271 -17.302 -5.617
O 8.069 -20.047 10.607
O 9.826 -21.262 8.696
O 7.189 -23.793 9.031
O 9.6 -24.946 9.246
O 4.851 -21.99 12.543
O -8.274 -16.145 -6.723
O -5.002 -12.592 -9.807
O -6.78 -12.588 -11.042
C -6.012 -13.143 -10.243
O -23.336 -18.339 -22.233
O -23.882 -15.656 -21.344
O -23.088 -17.286 -18.194
O -25.337 -15.335 -18.228
O -22.506 -21.694 -19.737
O 3.96 -22.89 -0.861
O 1.642 -29.561 -1.372
O 3.129 -30.724 0.156
O 3.89 -30.114 -2.068
S 3.029 -29.761 -0.944
O 14.415 -19.704 8.236
O 13.909 -17.954 10.445
O 10.738 -19.805 10.19
O 10.151 -18.072 12.392
O 12.158 -21.891 6.035
O -19.729 -25.627 16.271
O -18.922 -23.506 15.47
O -18.995 -23.951 17.84
S -19.669 -24.179 16.548
O -21.037 -23.628 16.605
O -8.527 -17.1 -5.181
O -8.548 -17.6 -9.284
O -10.306 -12.942 -4.324
O -1.886 -16.295 -3.926
O -1.681 -14.962 -5.787
O -13.935 -17.269 -8.749
C -2.196 -15.97 -5.135
O -7.316 -19.251 -11.183
O -8.493 -18.012 -4.597
O -6.981 -21.28 -10.261
O -7.03 -16.76 -5.73
F -12.053 -17.942 -11.779
C -8.168 -17.371 -5.602
O 14.764 -20.017 8.567
O 14.362 -20.51 11.389
O 11.032 -20.819 9.886
O 11.942 -21.455 13.232
O 11.653 -20.915 5.21
O -9.194 -17.56 -4.266
O -9.298 -18.582 -6.57
O -10.777 -15.988 -8.449
F -16.844 -19.918 -13.551
F -14.452 -18.699 -13.672
O -8.567 -17.215 -5.481
O -9.02 -17.589 -9.498
O -10.499 -12.984 -4.458
O -1.813 -15.744 -6.296
O -1.8 -17.364 -4.777
O -14.015 -17.369 -8.779
C -2.301 -16.822 -5.811
O 0.754 -18.064 -3.536
O 1.388 -15.79 -4.019
O 1.407 -16.589 -1.754
S 0.713 -16.673 -3.049
O -0.694 -16.25 -2.899
O 8.35 -20.389 10.997
O 10.199 -21.166 8.883
O 7.709 -23.881 8.912
O 10.247 -24.885 8.668
O 3.981 -20.908 12.087
O -10.218 -12.017 -6.656
O -9.136 -14.356 -6.41
O -13.163 -16.677 -10.73
O -11.046 -15.74 -10.364
N -18.784 -12.469 -10.774
F -13.666 -15.565 -0.303
O 8.393 -20.463 10.824
O 10.226 -21.475 8.853
O 7.59 -23.99 8.892
O 9.93 -25.216 9.307
O 5.044 -22.182 12.263
O 8.433 -20.627 11.13
O 10.393 -21.96 9.497
O 7.606 -24.345 9.352
O 9.966 -25.519 9.885
O 4.332 -20.118 11.428
O -14.193 -15.401 0.051
O -17.847 -5.229 -6.017
O -9.085 -11.574 -5.831
O -12.962 -13.937 -5.978
O -19.264 -11.44 -9.496
O -8.456 -9.943 -7.814
O -10.186 -9.284 -8.997
C -9.658 -10.017 -8.143
O -7.16 -19.545 -7.439
O -7.221 -16.092 -5.853
O -8.494 -17.588 -4.835
O -7.087 -20.771 -9.336
F -12.399 -17.71 -11.769
C -8.223 -16.787 -5.823
O -19.244 -23.065 15.326
O -19.1 -22.772 17.771
O -21.146 -22.105 16.56
