163
aromatic
C -11.166 -14.942 -5.018
C -11.772 -14.771 -3.613
C -11.86 -13.32 -3.179
S -11.176 -12.272 -4.585
C -10.781 -13.719 -5.701
C -15.861 -19.379 -12.476
C -14.7 -18.538 -12.483
C -14.089 -18.171 -11.235
C -14.646 -18.656 -9.981
C -15.802 -19.492 -9.987
C -16.407 -19.854 -11.24
C -12.936 -17.334 -11.255
C -12.338 -16.967 -10.007
C -12.871 -17.435 -8.751
C -14.034 -18.284 -8.739
C -12.252 -15.773 -2.682
C -12.784 -15.36 -1.395
C -12.842 -13.981 -1.029
C -12.387 -12.943 -1.909
N -10.428 -16.543 -7.041
C -11.233 -16.845 -8.079
C -10.386 -16.884 -9.308
N -9.128 -16.609 -8.913
C -9.217 -16.416 -7.58
C -11.14 -15.001 -5.266
C -11.756 -14.607 -3.937
C -11.973 -13.143 -3.94
S -11.479 -12.453 -5.376
C -10.951 -13.925 -6.143
C -10.943 -17.184 -10.546
C -12.312 -17.451 -10.626
C -13.122 -17.414 -9.475
C -12.598 -17.113 -8.208
C -12.509 -12.447 -2.856
C -12.881 -13.167 -1.727
C -12.71 -14.565 -1.656
C -12.166 -15.333 -2.692
C -11.677 -15.702 -2.988
C -11.189 -14.5 -3.497
C -11.603 -13.289 -2.967
C -12.504 -13.282 -1.924
C -12.996 -14.489 -1.409
C -12.58 -15.71 -1.945
C -9.575 -17.467 -11.139
C -8.326 -17.26 -10.462
C -8.315 -17.092 -9.027
C -9.513 -17.113 -8.159
C -10.857 -17.325 -8.843
C -10.852 -17.509 -10.407
C -12.212 -17.38 -8.193
C -13.443 -17.592 -8.957
C -13.388 -17.765 -10.431
C -12.131 -17.725 -11.13
C -11.727 -13.509 -2.984
C -11.762 -15.067 -3.188
C -12.588 -15.886 -2.274
C -13.351 -15.238 -1.21
C -13.316 -13.758 -1.025
C -12.521 -12.905 -1.89
C -10.978 -15.649 -4.258
C -10.134 -14.839 -5.171
C -10.136 -13.284 -4.922
C -10.91 -12.702 -3.872
C -12.647 -15.902 -14.263
C -11.51 -15.006 -13.652
C -10.107 -15.207 -14.115
C -9.792 -16.221 -15.118
C -10.869 -17.073 -15.695
C -12.268 -16.921 -15.282
C -11.878 -14.012 -12.654
C -13.277 -13.813 -12.19
C -14.342 -14.693 -12.8
C -14.039 -15.695 -13.795
N -8.782 -17.499 -7.272
C -9.028 -17.406 -5.949
N -10.35 -17.229 -5.735
C -10.993 -17.227 -6.961
C -10.01 -17.391 -7.941
C -11.277 -15.656 -4.07
C -10.731 -14.627 -4.816
C -10.992 -13.316 -4.459
C -11.781 -13.011 -3.375
C -12.317 -14.045 -2.622
C -12.066 -15.359 -2.984
C -12.334 -17.091 -7.306
C -12.688 -17.123 -8.638
C -11.722 -17.289 -9.618
C -10.388 -17.414 -9.277
C -11.066 -13.152 -4.144
C -10.736 -14.466 -4.403
C -11.288 -15.472 -3.63
C -12.154 -15.148 -2.611
C -12.484 -13.827 -2.328
C -11.928 -12.812 -3.116
C -10.41 -16.904 -9.211
C -11.284 -16.868 -8.002
N -10.502 -16.569 -6.965
C -9.222 -16.423 -7.44
N -9.166 -16.62 -8.798
C -11.192 -14.994 -5.046
C -11.791 -14.627 -3.724
C -11.911 -13.173 -3.645
S -11.345 -12.393 -5.04
C -10.926 -13.832 -5.814
C -12.755 -17.144 -8.134
C -13.249 -17.424 -9.382
C -12.369 -17.46 -10.601
C -11.017 -17.217 -10.553
C -12.446 -12.57 -2.503
C -12.885 -13.339 -1.402
C -12.781 -14.745 -1.449
C -12.238 -15.401 -2.596
C -11.196 -14.699 -3.099
C -11.229 -13.342 -3.401
C -12.177 -12.523 -2.683
C -13.031 -13.084 -1.77
C -13.042 -14.45 -1.552
C -12.129 -15.274 -2.198
C -5.258 -18.258 -7.222
C -4.622 -17.171 -7.839
C -3.635 -16.415 -7.154
C -3.266 -16.747 -5.827
C -3.891 -17.873 -5.219
C -4.857 -18.615 -5.911
C -10.934 -14.912 -5.514
C -10.577 -13.787 -6.18
S -10.835 -12.337 -5.3
C -11.457 -13.172 -3.929
C -11.466 -14.562 -4.168
C -15.108 -18.524 -10.095
C -16.357 -19.165 -10.065
C -16.956 -19.652 -11.218
C -16.296 -19.467 -12.429
C -15.056 -18.838 -12.482
C -14.457 -18.355 -11.325
C -11.914 -12.592 -2.741
C -12.392 -13.403 -1.722
C -12.394 -14.779 -1.972
C -11.947 -15.362 -3.133
C -11.299 -14.725 -3.185
C -11.348 -13.364 -3.458
C -12.281 -12.579 -2.743
C -13.125 -13.122 -1.791
C -13.053 -14.495 -1.585
C -12.169 -15.319 -2.27
C -5.718 -18.627 -7.858
C -5.213 -19.22 -6.661
C -4.104 -18.697 -5.989
C -3.492 -17.492 -6.472
C -4.035 -16.873 -7.631
C -5.13 -17.428 -8.303
C -14.749 -17.859 -9.809
C -15.974 -18.443 -9.457
C -16.814 -19.012 -10.419
C -16.398 -19.091 -11.752
C -15.172 -18.528 -12.109
C -14.315 -17.949 -11.141
C -11.084 -13.017 -4.249
C -10.659 -14.305 -4.521
C -11.119 -15.351 -3.754
C -11.995 -15.103 -2.727
C -12.429 -13.81 -2.436
C -11.961 -12.753 -3.214
