5YJP_A
 OpenBabel04062520543D

 37 39  0  0  0  0  0  0  0  0999 V2000
  -14.1190  -15.1550   -0.4480 Cl  0  0  0  0  0  0  0  0  0  0  0  0
   -9.4380  -16.6860   -5.9130 C   0  0  0  0  0  0  0  0  0  0  0  0
   -8.5270  -17.1000   -5.1810 O   0  0  0  0  0  0  0  0  0  0  0  0
  -10.5590  -15.8400   -5.2600 C   0  0  2  0  0  0  0  0  0  0  0  0
  -10.2240  -15.5770   -3.8190 C   0  0  0  0  0  0  0  0  0  0  0  0
  -11.1960  -14.6990   -3.0990 C   0  0  0  0  0  0  0  0  0  0  0  0
  -11.2290  -13.3420   -3.4010 C   0  0  0  0  0  0  0  0  0  0  0  0
  -12.1770  -12.5230   -2.6830 C   0  0  0  0  0  0  0  0  0  0  0  0
  -13.0310  -13.0840   -1.7700 C   0  0  0  0  0  0  0  0  0  0  0  0
  -13.0420  -14.4500   -1.5520 C   0  0  0  0  0  0  0  0  0  0  0  0
  -12.1290  -15.2740   -2.1980 C   0  0  0  0  0  0  0  0  0  0  0  0
  -11.8580  -16.6800   -5.4200 C   0  0  0  0  0  0  0  0  0  0  0  0
  -12.4310  -16.7880   -6.7340 N   0  0  0  0  0  0  0  0  0  0  0  0
  -11.9100  -16.5880   -7.9910 C   0  0  2  0  0  0  0  0  0  0  0  0
  -12.6430  -16.8290   -9.0070 N   0  0  0  0  0  0  0  0  0  0  0  0
  -10.4640  -16.1260   -8.1440 C   0  0  0  0  0  0  0  0  0  0  0  0
   -9.4390  -16.8280   -7.3000 N   0  0  0  0  0  0  0  0  0  0  0  0
   -8.4740  -17.5410   -8.0600 C   0  0  0  0  0  0  0  0  0  0  0  0
   -8.5480  -17.6000   -9.2840 O   0  0  0  0  0  0  0  0  0  0  0  0
   -7.5400  -18.2460   -7.3820 N   0  0  0  0  0  0  0  0  0  0  0  0
   -6.3980  -19.0120   -7.9640 C   0  0  1  0  0  0  0  0  0  0  0  0
   -5.2580  -18.2580   -7.2220 C   0  0  0  0  0  0  0  0  0  0  0  0
  -10.3060  -12.9420   -4.3240 O   0  0  0  0  0  0  0  0  0  0  0  0
  -10.1280  -11.5790   -4.7440 C   0  0  0  0  0  0  0  0  0  0  0  0
   -4.6220  -17.1710   -7.8390 C   0  0  0  0  0  0  0  0  0  0  0  0
   -3.6350  -16.4150   -7.1540 C   0  0  0  0  0  0  0  0  0  0  0  0
   -3.2660  -16.7470   -5.8270 C   0  0  0  0  0  0  0  0  0  0  0  0
   -3.8910  -17.8730   -5.2190 C   0  0  0  0  0  0  0  0  0  0  0  0
   -4.8570  -18.6150   -5.9110 C   0  0  0  0  0  0  0  0  0  0  0  0
   -6.4860  -20.5150   -7.7260 C   0  0  0  0  0  0  0  0  0  0  0  0
   -2.1960  -15.9700   -5.1350 C   0  0  0  0  0  0  0  0  0  0  0  0
   -1.8860  -16.2950   -3.9260 O   0  0  0  0  0  0  0  0  0  0  0  0
   -1.6810  -14.9620   -5.7870 O   0  0  0  0  0  0  0  0  0  0  0  0
   -7.3920  -21.2030   -8.6650 C   0  0  0  0  0  0  0  0  0  0  0  0
  -13.9350  -17.2690   -8.7490 O   0  0  0  0  0  0  0  0  0  0  0  0
  -14.4860  -17.8750   -9.9330 C   0  0  0  0  0  0  0  0  0  0  0  0
  -15.8910  -18.3650   -9.6070 C   0  0  0  0  0  0  0  0  0  0  0  0
  1 10  1  0  0  0  0
  2  3  2  0  0  0  0
  2  4  1  0  0  0  0
  2 17  1  0  0  0  0
  4  5  1  1  0  0  0
  4 12  1  0  0  0  0
  5  6  1  0  0  0  0
  6  7  2  0  0  0  0
  6 11  1  0  0  0  0
  7  8  1  0  0  0  0
  7 23  1  0  0  0  0
  8  9  2  0  0  0  0
  9 10  1  0  0  0  0
 10 11  2  0  0  0  0
 12 13  1  0  0  0  0
 13 14  1  0  0  0  0
 14 15  1  6  0  0  0
 14 16  1  0  0  0  0
 15 35  1  0  0  0  0
 16 17  1  0  0  0  0
 17 18  1  0  0  0  0
 18 19  2  0  0  0  0
 18 20  1  0  0  0  0
 20 21  1  0  0  0  0
 21 22  1  0  0  0  0
 21 30  1  1  0  0  0
 22 25  2  0  0  0  0
 22 29  1  0  0  0  0
 23 24  1  0  0  0  0
 25 26  1  0  0  0  0
 26 27  2  0  0  0  0
 27 28  1  0  0  0  0
 27 31  1  0  0  0  0
 28 29  2  0  0  0  0
 30 34  1  0  0  0  0
 31 32  1  0  0  0  0
 31 33  2  0  0  0  0
 35 36  1  0  0  0  0
 36 37  1  0  0  0  0
M  END
