9         
donor
N -10.428000 -16.542999 -7.041000
C -9.217000 -16.416000 -7.580000
C -10.993000 -17.226999 -6.961000
N -8.782000 -17.499001 -7.272000
C -10.010000 -17.391001 -7.941000
C -9.222000 -16.423000 -7.440000
N -10.502000 -16.569000 -6.965000
N -9.439000 -16.827999 -7.300000
N -9.684000 -16.825001 -7.470000
