14        
apolar
C -14.646000 -18.656000 -9.981000
C -12.871000 -17.434999 -8.751000
C -14.034000 -18.284000 -8.739000
C -13.122000 -17.414000 -9.475000
C -12.598000 -17.113001 -8.208000
C -12.212000 -17.379999 -8.193000
C -13.443000 -17.591999 -8.957000
C -12.334000 -17.091000 -7.306000
C -12.688000 -17.122999 -8.638000
C -12.755000 -17.143999 -8.134000
C -13.249000 -17.424000 -9.382000
C -15.108000 -18.524000 -10.095000
C -14.455000 -17.988001 -8.881000
C -14.749000 -17.858999 -9.809000
