10        
aromatic
N -11.974000 -11.248000 -8.225000
C -10.812000 -10.983000 -7.662000
C -10.414000 -10.966000 -7.289000
C -11.559000 -11.280000 -8.008000
C -10.846000 -11.009000 -7.661000
C -12.000000 -11.338000 -8.341000
C -10.595000 -11.073000 -7.485000
C -11.718000 -11.361000 -8.202000
C -10.544000 -11.102000 -7.514000
C -11.764000 -11.386000 -8.105000
