16        
apolar
C -7.648000 -19.309999 -9.413000
C -7.760000 -19.229000 -9.352000
C -7.621000 -20.351999 -10.163000
C -6.988000 -21.490000 -9.657000
C -8.113000 -19.815001 -10.552000
C -7.745000 -19.974001 -9.221000
C -7.001000 -21.527000 -9.667000
C -7.510000 -20.341999 -10.161000
C -7.518000 -19.204000 -9.368000
C -7.717000 -18.837000 -9.396000
C -7.627000 -19.868000 -10.331000
C -7.130000 -21.115999 -9.938000
C -6.782000 -21.624001 -10.164000
C -7.380000 -19.313000 -9.819000
C -7.282000 -20.424000 -10.638000
C -7.516000 -20.521999 -8.679000
