35        
apolar
C -7.338000 -19.693001 -7.963000
C -7.648000 -19.309999 -9.413000
C -6.076000 -20.538000 -7.902000
C -7.270000 -19.221001 -8.042000
C -7.760000 -19.229000 -9.352000
C -7.621000 -20.351999 -10.163000
C -6.988000 -21.490000 -9.657000
C -6.528000 -21.503000 -8.345000
C -6.663000 -20.370001 -7.537000
C -7.390000 -20.171000 -7.712000
C -7.392000 -18.975000 -8.663000
C -6.813000 -19.128000 -8.643000
C -8.113000 -19.815001 -10.552000
C -7.745000 -19.974001 -9.221000
C -7.006000 -19.235001 -8.074000
C -6.493000 -21.572001 -8.384000
C -7.001000 -21.527000 -9.667000
C -7.510000 -20.341999 -10.161000
C -7.518000 -19.204000 -9.368000
C -6.502000 -20.436001 -7.589000
C -6.981000 -19.070000 -8.334000
C -7.299000 -19.058001 -8.074000
C -7.717000 -18.837000 -9.396000
C -7.627000 -19.868000 -10.331000
C -7.130000 -21.115999 -9.938000
C -6.722000 -21.358000 -8.624000
C -6.813000 -20.318001 -7.697000
C -6.989000 -19.367001 -8.485000
C -6.782000 -21.624001 -10.164000
C -7.380000 -19.313000 -9.819000
C -7.282000 -20.424000 -10.638000
C -6.383000 -21.681000 -8.831000
C -6.491000 -20.575001 -8.001000
C -6.486000 -20.514999 -7.726000
C -7.516000 -20.521999 -8.679000
