136       
apolar
C -11.048000 -17.049999 -9.654000
C -11.659000 -17.047001 -8.386000
C -11.817000 -17.386999 -10.770000
C -13.148000 -17.733999 -10.611000
C -13.731000 -17.735001 -9.350000
C -12.994000 -17.379999 -8.226000
C -8.828000 -17.516001 -8.013000
C -10.091000 -17.513000 -8.702000
C -11.078000 -17.257999 -7.741000
C -12.432000 -17.212000 -8.073000
C -12.812000 -17.424000 -9.389000
C -11.821000 -17.677000 -10.334000
C -10.476000 -17.719999 -10.033000
C -14.646000 -18.656000 -9.981000
C -12.936000 -17.334000 -11.255000
C -12.338000 -16.966999 -10.007000
C -12.871000 -17.434999 -8.751000
C -14.034000 -18.284000 -8.739000
C -8.691000 -16.648001 -7.383000
C -9.916000 -15.759000 -7.487000
C -10.944000 -16.337000 -8.462000
C -10.574000 -16.670000 -9.761000
C -11.492000 -17.219999 -10.641000
C -12.790000 -17.455999 -10.233000
C -13.169000 -17.145000 -8.942000
C -12.252000 -16.597000 -8.060000
C -9.153000 -16.709000 -7.331000
C -10.339000 -15.781000 -7.529000
C -11.340000 -16.417999 -8.475000
C -10.983000 -16.573999 -9.826000
C -11.898000 -17.184000 -10.687000
C -13.155000 -17.622000 -10.276000
C -13.496000 -17.457001 -8.927000
C -12.588000 -16.872999 -8.038000
C -11.233000 -16.844999 -8.079000
C -10.386000 -16.884001 -9.308000
C -10.943000 -17.184000 -10.546000
C -12.312000 -17.451000 -10.626000
C -13.122000 -17.414000 -9.475000
C -12.598000 -17.113001 -8.208000
C -11.702000 -17.167000 -8.306000
C -10.746000 -16.827999 -7.296000
C -13.006000 -17.888000 -10.663000
C -13.712000 -17.775000 -9.472000
C -13.065000 -17.422001 -8.301000
C -11.001000 -17.292000 -9.519000
C -11.644000 -17.624001 -10.705000
C -9.513000 -17.113001 -8.159000
C -10.857000 -17.325001 -8.843000
C -10.852000 -17.509001 -10.407000
C -9.556000 -16.936001 -6.621000
C -12.212000 -17.379999 -8.193000
C -13.443000 -17.591999 -8.957000
C -13.388000 -17.764999 -10.431000
C -12.131000 -17.725000 -11.130000
C -10.993000 -17.226999 -6.961000
C -12.334000 -17.091000 -7.306000
C -12.688000 -17.122999 -8.638000
C -11.722000 -17.289000 -9.618000
C -10.388000 -17.414000 -9.277000
C -10.010000 -17.391001 -7.941000
C -10.306000 -17.457001 -8.849000
C -11.242000 -17.167999 -7.842000
C -10.753000 -17.530001 -10.172000
C -12.090000 -17.333000 -10.464000
C -13.002000 -17.052999 -9.446000
C -12.585000 -16.975000 -8.127000
C -8.511000 -16.584000 -6.817000
C -9.790000 -15.799000 -7.043000
C -10.727000 -16.436001 -8.065000
C -10.184000 -16.871000 -9.271000
C -11.004000 -17.389999 -10.257000
C -12.364000 -17.528999 -10.042000
C -12.917000 -17.129000 -8.839000
C -12.102000 -16.570000 -7.856000
C -9.032000 -17.275999 -8.004000
C -10.301000 -17.215000 -8.667000
C -11.260000 -16.909000 -7.695000
C -12.601000 -16.757999 -8.019000
C -12.996000 -16.920000 -9.336000
C -12.041000 -17.211000 -10.281000
C -10.703000 -17.370001 -9.994000
C -10.016000 -15.562000 -7.649000
C -8.669000 -16.260000 -7.580000
C -11.003000 -16.266001 -8.583000
C -11.492000 -17.288000 -10.714000
C -12.774000 -17.583000 -10.294000
C -13.177000 -17.219999 -9.025000
C -12.294000 -16.580000 -8.169000
C -10.609000 -16.643000 -9.864000
C -9.068000 -16.601999 -6.939000
C -10.236000 -15.628000 -6.949000
C -11.203000 -16.162001 -8.007000
C -10.793000 -16.117001 -9.357000
C -11.602000 -16.606001 -10.397000
C -12.836000 -17.188999 -10.106000
C -13.237000 -17.264000 -8.766000
C -12.432000 -16.777000 -7.730000
C -8.730000 -16.709999 -7.825000
C -9.894000 -15.756000 -8.036000
C -10.941000 -16.341999 -8.989000
C -12.249000 -16.573000 -8.575000
C -13.178000 -17.128000 -9.443000
C -12.815000 -17.459999 -10.733000
C -11.516000 -17.247999 -11.152000
C -10.583000 -16.697001 -10.287000
C -9.004000 -17.625000 -7.986000
C -10.270000 -17.690001 -8.627000
C -11.234000 -17.528000 -7.632000
C -10.693000 -17.891001 -9.924000
C -12.044000 -17.875999 -10.211000
C -12.989000 -17.775999 -9.196000
C -12.597000 -17.527000 -7.900000
C -12.755000 -17.143999 -8.134000
C -13.249000 -17.424000 -9.382000
C -12.369000 -17.459999 -10.601000
C -11.017000 -17.216999 -10.553000
C -10.410000 -16.903999 -9.211000
C -11.284000 -16.868000 -8.002000
C -8.805000 -17.740000 -8.057000
C -10.045000 -17.659000 -8.787000
C -11.046000 -17.291000 -7.873000
C -12.371000 -17.135000 -8.267000
C -12.709000 -17.354000 -9.593000
C -11.713000 -17.716000 -10.479000
C -10.388000 -17.871000 -10.123000
C -15.108000 -18.524000 -10.095000
C -14.455000 -17.988001 -8.881000
C -14.749000 -17.858999 -9.809000
C -8.995000 -17.146000 -8.241000
C -10.272000 -17.239000 -8.888000
C -11.250000 -17.046000 -7.905000
C -12.605000 -17.072001 -8.214000
C -12.992000 -17.292999 -9.528000
C -12.014000 -17.485001 -10.481000
C -10.665000 -17.462000 -10.206000
