1NN6_A
 OpenBabel04062520543D

 14 14  0  0  0  0  0  0  0  0999 V2000
    6.1530  -22.9250    8.8730 C   0  0  0  0  0  0  0  0  0  0  0  0
    6.4720  -21.8580    9.9380 C   0  0  2  0  0  0  0  0  0  0  0  0
    5.3440  -21.0060   10.3020 N   0  0  0  0  0  0  0  0  0  0  0  0
    7.5880  -20.9400    9.4630 C   0  0  1  0  0  0  0  0  0  0  0  0
    7.8920  -20.0440   10.5290 O   0  0  0  0  0  0  0  0  0  0  0  0
    8.8050  -21.7580    9.0510 C   0  0  2  0  0  0  0  0  0  0  0  0
    9.6470  -20.8670    8.3500 O   0  0  0  0  0  0  0  0  0  0  0  0
    8.4420  -22.9400    8.1470 C   0  0  2  0  0  0  0  0  0  0  0  0
    7.3370  -23.6720    8.6810 O   0  0  0  0  0  0  0  0  0  0  0  0
    9.6090  -23.9040    7.9120 C   0  0  0  0  0  0  0  0  0  0  0  0
   10.0210  -24.4950    9.1360 O   0  0  0  0  0  0  0  0  0  0  0  0
    4.7600  -20.9690   11.5050 C   0  0  0  0  0  0  0  0  0  0  0  0
    3.7790  -20.2550   11.7370 O   0  0  0  0  0  0  0  0  0  0  0  0
    5.3050  -21.7770   12.6340 C   0  0  0  0  0  0  0  0  0  0  0  0
  1  2  1  0  0  0  0
  1  9  1  0  0  0  0
  2  3  1  6  0  0  0
  2  4  1  0  0  0  0
  3 12  1  0  0  0  0
  4  5  1  1  0  0  0
  4  6  1  0  0  0  0
  6  7  1  6  0  0  0
  6  8  1  0  0  0  0
  8  9  1  0  0  0  0
  8 10  1  1  0  0  0
 10 11  1  0  0  0  0
 12 13  2  0  0  0  0
 12 14  1  0  0  0  0
M  END
