1PJP_A
 OpenBabel04062520543D

 11 11  0  0  0  0  0  0  0  0999 V2000
  -11.9250  -17.2030   -5.6990 N   0  0  0  0  0  0  0  0  0  0  0  0
  -10.9920  -17.5250   -4.6250 C   0  0  2  0  0  0  0  0  0  0  0  0
  -10.5340  -19.0020   -4.6400 C   0  0  0  0  0  0  0  0  0  0  0  0
   -9.5240  -19.3040   -3.9920 O   0  0  0  0  0  0  0  0  0  0  0  0
  -11.6280  -17.2210   -3.2630 C   0  0  0  0  0  0  0  0  0  0  0  0
  -11.9020  -15.7600   -3.0010 C   0  0  0  0  0  0  0  0  0  0  0  0
  -11.2920  -14.7560   -3.7550 C   0  0  0  0  0  0  0  0  0  0  0  0
  -12.7680  -15.3980   -1.9700 C   0  0  0  0  0  0  0  0  0  0  0  0
  -11.5310  -13.4120   -3.4890 C   0  0  0  0  0  0  0  0  0  0  0  0
  -13.0170  -14.0530   -1.6930 C   0  0  0  0  0  0  0  0  0  0  0  0
  -12.3920  -13.0590   -2.4620 C   0  0  0  0  0  0  0  0  0  0  0  0
  2  1  1  6  0  0  0
  2  3  1  0  0  0  0
  2  5  1  0  0  0  0
  3  4  1  0  0  0  0
  5  6  1  0  0  0  0
  6  7  2  0  0  0  0
  6  8  1  0  0  0  0
  7  9  1  0  0  0  0
  8 10  2  0  0  0  0
  9 11  2  0  0  0  0
 10 11  1  0  0  0  0
M  END
