1T31_A
 OpenBabel04062520543D

 14 14  0  0  0  0  0  0  0  0999 V2000
   11.3780  -21.5620    8.7200 C   0  0  0  0  0  0  0  0  0  0  0  0
   12.6150  -20.9550    8.0550 C   0  0  2  0  0  0  0  0  0  0  0  0
   12.9790  -21.7710    6.8790 N   0  0  0  0  0  0  0  0  0  0  0  0
   13.7690  -20.8710    9.0700 C   0  0  1  0  0  0  0  0  0  0  0  0
   14.7640  -20.0170    8.5670 O   0  0  0  0  0  0  0  0  0  0  0  0
   13.3260  -20.3140   10.4340 C   0  0  2  0  0  0  0  0  0  0  0  0
   14.3620  -20.5100   11.3890 O   0  0  0  0  0  0  0  0  0  0  0  0
   12.0350  -21.0330   10.8920 C   0  0  2  0  0  0  0  0  0  0  0  0
   11.0320  -20.8190    9.8860 O   0  0  0  0  0  0  0  0  0  0  0  0
   11.5390  -20.5270   12.2410 C   0  0  0  0  0  0  0  0  0  0  0  0
   11.9420  -21.4550   13.2320 O   0  0  0  0  0  0  0  0  0  0  0  0
   12.2820  -21.8490    5.7190 C   0  0  0  0  0  0  0  0  0  0  0  0
   11.6530  -20.9150    5.2100 O   0  0  0  0  0  0  0  0  0  0  0  0
   12.2920  -23.1860    5.0360 C   0  0  0  0  0  0  0  0  0  0  0  0
  1  2  1  0  0  0  0
  1  9  1  0  0  0  0
  2  3  1  6  0  0  0
  2  4  1  0  0  0  0
  3 12  1  0  0  0  0
  4  5  1  6  0  0  0
  4  6  1  0  0  0  0
  6  7  1  1  0  0  0
  6  8  1  0  0  0  0
  8  9  1  0  0  0  0
  8 10  1  1  0  0  0
 10 11  1  0  0  0  0
 12 13  2  0  0  0  0
 12 14  1  0  0  0  0
M  END
