1T31_A
 OpenBabel04062520543D

 49 55  0  0  0  0  0  0  0  0999 V2000
   -8.4980  -18.0160   -5.7570 P   0  0  0  0  0  0  0  0  0  0  0  0
   -9.5750  -17.4670  -11.1390 C   0  0  0  0  0  0  0  0  0  0  0  0
   -9.8450  -11.9320   -7.1000 N   0  0  0  0  0  0  0  0  0  0  0  0
   -8.8260  -18.0360   -4.3210 O   0  0  0  0  0  0  0  0  0  0  0  0
   -8.3260  -17.2600  -10.4620 C   0  0  0  0  0  0  0  0  0  0  0  0
  -13.1110  -12.8930   -9.7710 N   0  0  0  0  0  0  0  0  0  0  0  0
   -7.0460  -17.7650   -6.1770 O   0  0  0  0  0  0  0  0  0  0  0  0
   -8.3150  -17.0920   -9.0270 C   0  0  0  0  0  0  0  0  0  0  0  0
   -8.5980  -19.3560   -6.4770 O   0  0  0  0  0  0  0  0  0  0  0  0
   -9.5130  -17.1130   -8.1590 C   0  0  0  0  0  0  0  0  0  0  0  0
  -10.8570  -17.3250   -8.8430 C   0  0  0  0  0  0  0  0  0  0  0  0
  -11.7270  -13.5090   -2.9840 C   0  0  0  0  0  0  0  0  0  0  0  0
  -12.6470  -15.9020  -14.2630 C   0  0  0  0  0  0  0  0  0  0  0  0
   -8.5540  -14.7350   -7.0150 O   0  0  0  0  0  0  0  0  0  0  0  0
  -12.2120  -17.3800   -8.1930 C   0  0  0  0  0  0  0  0  0  0  0  0
   -8.2800  -11.8770   -5.2980 O   0  0  0  0  0  0  0  0  0  0  0  0
  -13.4430  -17.5920   -8.9570 C   0  0  0  0  0  0  0  0  0  0  0  0
  -14.3880  -11.8270  -11.4420 O   0  0  0  0  0  0  0  0  0  0  0  0
  -13.3880  -17.7650  -10.4310 C   0  0  0  0  0  0  0  0  0  0  0  0
  -12.1310  -17.7250  -11.1300 C   0  0  0  0  0  0  0  0  0  0  0  0
  -10.8520  -17.5090  -10.4070 C   0  0  0  0  0  0  0  0  0  0  0  0
  -11.7620  -15.0670   -3.1880 C   0  0  0  0  0  0  0  0  0  0  0  0
  -11.5100  -15.0060  -13.6520 C   0  0  0  0  0  0  0  0  0  0  0  0
   -9.5560  -16.9360   -6.6210 C   0  0  2  0  0  0  0  0  0  0  0  0
   -9.2470  -15.4500   -6.3570 C   0  0  0  0  0  0  0  0  0  0  0  0
  -10.1340  -14.8390   -5.1710 C   0  0  0  0  0  0  0  0  0  0  0  0
  -10.1360  -13.2840   -4.9220 C   0  0  0  0  0  0  0  0  0  0  0  0
  -10.9100  -12.7020   -3.8720 C   0  0  0  0  0  0  0  0  0  0  0  0
  -12.5210  -12.9050   -1.8900 C   0  0  0  0  0  0  0  0  0  0  0  0
  -13.3160  -13.7580   -1.0250 C   0  0  0  0  0  0  0  0  0  0  0  0
  -13.3510  -15.2380   -1.2100 C   0  0  0  0  0  0  0  0  0  0  0  0
  -12.5880  -15.8860   -2.2740 C   0  0  0  0  0  0  0  0  0  0  0  0
  -10.9780  -15.6490   -4.2580 C   0  0  0  0  0  0  0  0  0  0  0  0
   -9.3200  -12.2890   -5.7850 C   0  0  0  0  0  0  0  0  0  0  0  0
   -8.9990  -10.9690   -7.8970 C   0  0  0  0  0  0  0  0  0  0  0  0
  -11.1130  -12.4570   -7.6640 C   0  0  0  0  0  0  0  0  0  0  0  0
  -10.8570  -13.4590   -8.8200 C   0  0  0  0  0  0  0  0  0  0  0  0
  -12.2240  -13.9780   -9.2760 C   0  0  0  0  0  0  0  0  0  0  0  0
  -13.4520  -11.8600   -8.6980 C   0  0  0  0  0  0  0  0  0  0  0  0
  -12.1250  -11.2790   -8.0990 C   0  0  0  0  0  0  0  0  0  0  0  0
  -13.6520  -12.7480  -11.1120 C   0  0  0  0  0  0  0  0  0  0  0  0
  -13.2770  -13.8130  -12.1900 C   0  0  0  0  0  0  0  0  0  0  0  0
  -14.3420  -14.6930  -12.8000 C   0  0  0  0  0  0  0  0  0  0  0  0
  -14.0390  -15.6950  -13.7950 C   0  0  0  0  0  0  0  0  0  0  0  0
  -12.2680  -16.9210  -15.2820 C   0  0  0  0  0  0  0  0  0  0  0  0
  -10.8690  -17.0730  -15.6950 C   0  0  0  0  0  0  0  0  0  0  0  0
   -9.7920  -16.2210  -15.1180 C   0  0  0  0  0  0  0  0  0  0  0  0
  -10.1070  -15.2070  -14.1150 C   0  0  0  0  0  0  0  0  0  0  0  0
  -11.8780  -14.0120  -12.6540 C   0  0  0  0  0  0  0  0  0  0  0  0
  1  4  1  0  0  0  0
  1  7  2  0  0  0  0
  1  9  2  0  0  0  0
  1 24  1  0  0  0  0
  2  5  2  0  0  0  0
  2 21  1  0  0  0  0
  3 34  1  0  0  0  0
  3 35  1  0  0  0  0
  3 36  1  0  0  0  0
  5  8  1  0  0  0  0
  6 38  1  0  0  0  0
  6 39  1  0  0  0  0
  6 41  1  0  0  0  0
  8 10  2  0  0  0  0
 10 11  1  0  0  0  0
 10 24  1  0  0  0  0
 11 15  2  0  0  0  0
 11 21  1  0  0  0  0
 12 22  1  0  0  0  0
 12 28  2  0  0  0  0
 12 29  1  0  0  0  0
 13 23  1  0  0  0  0
 13 44  2  0  0  0  0
 13 45  1  0  0  0  0
 14 25  2  0  0  0  0
 15 17  1  0  0  0  0
 16 34  2  0  0  0  0
 17 19  2  0  0  0  0
 18 41  2  0  0  0  0
 19 20  1  0  0  0  0
 20 21  2  0  0  0  0
 22 32  1  0  0  0  0
 22 33  2  0  0  0  0
 23 48  1  0  0  0  0
 23 49  2  0  0  0  0
 24 25  1  6  0  0  0
 25 26  1  0  0  0  0
 26 27  2  0  0  0  0
 26 33  1  0  0  0  0
 27 28  1  0  0  0  0
 27 34  1  0  0  0  0
 29 30  2  0  0  0  0
 30 31  1  0  0  0  0
 31 32  2  0  0  0  0
 36 37  1  0  0  0  0
 36 40  1  0  0  0  0
 37 38  1  0  0  0  0
 39 40  1  0  0  0  0
 41 42  1  0  0  0  0
 42 43  2  0  0  0  0
 42 49  1  0  0  0  0
 43 44  1  0  0  0  0
 45 46  2  0  0  0  0
 46 47  1  0  0  0  0
 47 48  2  0  0  0  0
M  END
