1T31_A
 OpenBabel04062520543D

 14 14  0  0  0  0  0  0  0  0999 V2000
  -23.7060  -18.8310  -18.7300 C   0  0  0  0  0  0  0  0  0  0  0  0
  -23.7010  -19.4900  -20.1130 C   0  0  2  0  0  0  0  0  0  0  0  0
  -22.2740  -19.8070  -20.3480 N   0  0  0  0  0  0  0  0  0  0  0  0
  -24.3800  -18.5790  -21.2120 C   0  0  1  0  0  0  0  0  0  0  0  0
  -24.7680  -19.4000  -22.3040 O   0  0  0  0  0  0  0  0  0  0  0  0
  -25.6510  -17.8110  -20.7100 C   0  0  2  0  0  0  0  0  0  0  0  0
  -25.9060  -16.7330  -21.5790 O   0  0  0  0  0  0  0  0  0  0  0  0
  -25.4020  -17.3180  -19.2340 C   0  0  2  0  0  0  0  0  0  0  0  0
  -25.0960  -18.4990  -18.4530 O   0  0  0  0  0  0  0  0  0  0  0  0
  -26.4560  -16.5320  -18.4790 C   0  0  0  0  0  0  0  0  0  0  0  0
  -27.5580  -17.4260  -18.2670 O   0  0  0  0  0  0  0  0  0  0  0  0
  -21.8540  -20.6500  -21.3360 C   0  0  0  0  0  0  0  0  0  0  0  0
  -21.9120  -21.8610  -21.2340 O   0  0  0  0  0  0  0  0  0  0  0  0
  -21.2860  -20.0210  -22.6090 C   0  0  0  0  0  0  0  0  0  0  0  0
  1  2  1  0  0  0  0
  1  9  1  0  0  0  0
  2  3  1  6  0  0  0
  2  4  1  0  0  0  0
  3 12  1  0  0  0  0
  4  5  1  6  0  0  0
  4  6  1  0  0  0  0
  6  7  1  6  0  0  0
  6  8  1  0  0  0  0
  8  9  1  0  0  0  0
  8 10  1  1  0  0  0
 10 11  1  0  0  0  0
 12 13  2  0  0  0  0
 12 14  1  0  0  0  0
M  END
