3N7O_A
 OpenBabel04062520543D

 14 14  0  0  0  0  0  0  0  0999 V2000
    6.5130  -23.2570    8.4580 C   0  0  0  0  0  0  0  0  0  0  0  0
    6.9790  -22.2950    9.5450 C   0  0  2  0  0  0  0  0  0  0  0  0
    5.9110  -21.3810    9.9110 N   0  0  0  0  0  0  0  0  0  0  0  0
    8.1890  -21.5060    9.0640 C   0  0  1  0  0  0  0  0  0  0  0  0
    8.7150  -20.7590   10.1410 O   0  0  0  0  0  0  0  0  0  0  0  0
    9.2580  -22.4310    8.4970 C   0  0  2  0  0  0  0  0  0  0  0  0
   10.2370  -21.6420    7.8560 O   0  0  0  0  0  0  0  0  0  0  0  0
    8.6390  -23.4130    7.4970 C   0  0  2  0  0  0  0  0  0  0  0  0
    7.5820  -24.1300    8.1110 O   0  0  0  0  0  0  0  0  0  0  0  0
    9.6920  -24.3710    6.9330 C   0  0  0  0  0  0  0  0  0  0  0  0
   10.2360  -25.1710    7.9640 O   0  0  0  0  0  0  0  0  0  0  0  0
    5.4670  -21.3030   11.1600 C   0  0  0  0  0  0  0  0  0  0  0  0
    5.8750  -22.0310   12.0700 O   0  0  0  0  0  0  0  0  0  0  0  0
    4.4280  -20.2500   11.4260 C   0  0  0  0  0  0  0  0  0  0  0  0
  1  2  1  0  0  0  0
  1  9  1  0  0  0  0
  2  3  1  6  0  0  0
  2  4  1  0  0  0  0
  3 12  1  0  0  0  0
  4  5  1  1  0  0  0
  4  6  1  0  0  0  0
  6  7  1  6  0  0  0
  6  8  1  0  0  0  0
  8  9  1  0  0  0  0
  8 10  1  1  0  0  0
 10 11  1  0  0  0  0
 12 13  2  0  0  0  0
 12 14  1  0  0  0  0
M  END
