3N7O_A
 OpenBabel04062520543D

 14 14  0  0  0  0  0  0  0  0999 V2000
  -23.6650  -19.4640  -18.9000 C   0  0  0  0  0  0  0  0  0  0  0  0
  -23.9750  -20.4070  -20.0560 C   0  0  2  0  0  0  0  0  0  0  0  0
  -22.7720  -21.1080  -20.4600 N   0  0  0  0  0  0  0  0  0  0  0  0
  -24.5580  -19.6220  -21.2240 C   0  0  1  0  0  0  0  0  0  0  0  0
  -24.9260  -20.4910  -22.2790 O   0  0  0  0  0  0  0  0  0  0  0  0
  -25.7470  -18.8070  -20.7320 C   0  0  2  0  0  0  0  0  0  0  0  0
  -26.2320  -18.0110  -21.7930 O   0  0  0  0  0  0  0  0  0  0  0  0
  -25.3110  -17.9330  -19.5510 C   0  0  2  0  0  0  0  0  0  0  0  0
  -24.8250  -18.7590  -18.5030 O   0  0  0  0  0  0  0  0  0  0  0  0
  -26.4130  -16.9990  -19.0450 C   0  0  0  0  0  0  0  0  0  0  0  0
  -27.4830  -17.7300  -18.4870 O   0  0  0  0  0  0  0  0  0  0  0  0
  -22.5900  -22.3880  -20.1450 C   0  0  0  0  0  0  0  0  0  0  0  0
  -23.4990  -23.1180  -19.7480 O   0  0  0  0  0  0  0  0  0  0  0  0
  -21.1950  -22.9220  -20.2880 C   0  0  0  0  0  0  0  0  0  0  0  0
  1  2  1  0  0  0  0
  1  9  1  0  0  0  0
  2  3  1  6  0  0  0
  2  4  1  0  0  0  0
  3 12  1  0  0  0  0
  4  5  1  6  0  0  0
  4  6  1  0  0  0  0
  6  7  1  6  0  0  0
  6  8  1  0  0  0  0
  8  9  1  0  0  0  0
  8 10  1  1  0  0  0
 10 11  1  0  0  0  0
 12 13  2  0  0  0  0
 12 14  1  0  0  0  0
M  END
