3N7O_A
 OpenBabel04062520543D

  7  0  0  0  0  0  0  0  0  0999 V2000
  -27.5270  -29.5330  -10.0740 C   0  0  0  0  0  0  0  0  0  0  0  0
  -26.5070  -30.1400   -9.7350 O   0  0  0  0  0  0  0  0  0  0  0  0
  -27.6280  -28.5590  -11.2040 C   0  0  0  0  0  0  0  0  0  0  0  0
  -28.6590  -29.7500   -9.3500 O   0  0  0  0  0  0  0  0  0  0  0  0
  -28.3160  -27.3280  -10.7390 C   0  0  0  0  0  0  0  0  0  0  0  0
  -29.0040  -26.5690  -11.4940 O   0  0  0  0  0  0  0  0  0  0  0  0
  -28.2370  -27.0310   -9.4670 O   0  0  0  0  0  0  0  0  0  0  0  0
M  END
