3S0N_A
 OpenBabel04062520543D

 27 30  0  0  0  0  0  0  0  0999 V2000
   -7.9570  -16.5390   -9.6450 C   0  0  0  0  0  0  0  0  0  0  0  0
   -8.2740  -16.1450   -6.7230 O   0  0  0  0  0  0  0  0  0  0  0  0
  -12.7550  -17.1440   -8.1340 C   0  0  0  0  0  0  0  0  0  0  0  0
  -13.2490  -17.4240   -9.3820 C   0  0  0  0  0  0  0  0  0  0  0  0
  -12.3690  -17.4600  -10.6010 C   0  0  0  0  0  0  0  0  0  0  0  0
  -11.0170  -17.2170  -10.5530 C   0  0  0  0  0  0  0  0  0  0  0  0
  -10.4100  -16.9040   -9.2110 C   0  0  0  0  0  0  0  0  0  0  0  0
  -11.2840  -16.8680   -8.0020 C   0  0  0  0  0  0  0  0  0  0  0  0
  -10.5020  -16.5690   -6.9650 N   0  0  0  0  0  0  0  0  0  0  0  0
   -9.2220  -16.4230   -7.4400 C   0  0  0  0  0  0  0  0  0  0  0  0
   -9.1660  -16.6200   -8.7980 N   0  0  0  0  0  0  0  0  0  0  0  0
   -7.7020  -15.1050  -10.1530 C   0  0  0  0  0  0  0  0  0  0  0  0
   -6.3060  -14.5820   -9.7560 C   0  0  0  0  0  0  0  0  0  0  0  0
  -10.8860  -16.4170   -5.5520 C   0  0  0  0  0  0  0  0  0  0  0  0
  -11.1920  -14.9940   -5.0460 C   0  0  0  0  0  0  0  0  0  0  0  0
  -11.7910  -14.6270   -3.7240 C   0  0  0  0  0  0  0  0  0  0  0  0
  -11.9110  -13.1730   -3.6450 C   0  0  0  0  0  0  0  0  0  0  0  0
  -11.3450  -12.3930   -5.0400 S   0  0  0  0  0  0  0  0  0  0  0  0
  -10.9260  -13.8320   -5.8140 C   0  0  0  0  0  0  0  0  0  0  0  0
  -12.2380  -15.4010   -2.5960 C   0  0  0  0  0  0  0  0  0  0  0  0
  -12.7810  -14.7450   -1.4490 C   0  0  0  0  0  0  0  0  0  0  0  0
  -12.8850  -13.3390   -1.4020 C   0  0  0  0  0  0  0  0  0  0  0  0
  -12.4460  -12.5700   -2.5030 C   0  0  0  0  0  0  0  0  0  0  0  0
  -12.1630  -16.9090   -2.5540 C   0  0  0  0  0  0  0  0  0  0  0  0
   -6.0120  -13.1430  -10.2430 C   0  0  0  0  0  0  0  0  0  0  0  0
   -5.0020  -12.5920   -9.8070 O   0  0  0  0  0  0  0  0  0  0  0  0
   -6.7800  -12.5880  -11.0420 O   0  0  0  0  0  0  0  0  0  0  0  0
  1 11  1  0  0  0  0
  1 12  1  0  0  0  0
  2 10  2  0  0  0  0
  3  4  2  0  0  0  0
  3  8  1  0  0  0  0
  4  5  1  0  0  0  0
  5  6  2  0  0  0  0
  6  7  1  0  0  0  0
  7  8  2  0  0  0  0
  7 11  1  0  0  0  0
  8  9  1  0  0  0  0
  9 10  1  0  0  0  0
  9 14  1  0  0  0  0
 10 11  1  0  0  0  0
 12 13  1  0  0  0  0
 13 25  1  0  0  0  0
 14 15  1  0  0  0  0
 15 16  1  0  0  0  0
 15 19  2  0  0  0  0
 16 17  2  0  0  0  0
 16 20  1  0  0  0  0
 17 18  1  0  0  0  0
 17 23  1  0  0  0  0
 18 19  1  0  0  0  0
 20 21  2  0  0  0  0
 20 24  1  0  0  0  0
 21 22  1  0  0  0  0
 22 23  2  0  0  0  0
 25 26  1  0  0  0  0
 25 27  2  0  0  0  0
M  END
