4AFS_A
 OpenBabel04062520543D

  5  4  0  0  0  0  0  0  0  0999 V2000
  -20.0180  -23.1050   16.6190 P   0  0  0  0  0  0  0  0  0  0  0  0
  -19.2440  -23.0650   15.3260 O   0  0  0  0  0  0  0  0  0  0  0  0
  -19.1000  -22.7720   17.7710 O   0  0  0  0  0  0  0  0  0  0  0  0
  -20.5690  -24.4960   16.8070 O   0  5  0  0  0  0  0  0  0  0  0  0
  -21.1460  -22.1050   16.5600 O   0  0  0  0  0  0  0  0  0  0  0  0
  1  2  1  0  0  0  0
  1  3  1  0  0  0  0
  1  4  1  0  0  0  0
  1  5  2  0  0  0  0
M  CHG  1   4  -1
M  END
