4AFZ_A
 OpenBabel04062520543D

 10  9  0  0  0  0  0  0  0  0999 V2000
   -7.8590  -18.4490   -5.7990 C   0  0  0  0  0  0  0  0  0  0  0  0
   -8.3990  -18.3840   -4.6600 O   0  0  0  0  0  0  0  0  0  0  0  0
   -6.5340  -19.1760   -5.9000 C   0  0  1  0  0  0  0  0  0  0  0  0
   -6.4910  -19.9690   -7.0980 O   0  0  0  0  0  0  0  0  0  0  0  0
   -5.3380  -18.2260   -5.8440 C   0  0  2  0  0  0  0  0  0  0  0  0
   -5.6030  -17.0510   -6.6250 O   0  0  0  0  0  0  0  0  0  0  0  0
   -4.1060  -18.9470   -6.3350 C   0  0  0  0  0  0  0  0  0  0  0  0
   -3.9620  -19.0790   -7.5790 O   0  0  0  0  0  0  0  0  0  0  0  0
   -8.3490  -17.9750   -6.8570 O   0  0  0  0  0  0  0  0  0  0  0  0
   -3.2830  -19.3920   -5.4840 O   0  0  0  0  0  0  0  0  0  0  0  0
  1  2  1  0  0  0  0
  1  3  1  0  0  0  0
  1  9  2  0  0  0  0
  3  4  1  6  0  0  0
  3  5  1  0  0  0  0
  5  6  1  6  0  0  0
  5  7  1  0  0  0  0
  7  8  1  0  0  0  0
  7 10  2  0  0  0  0
M  END
