4AG2_B
 OpenBabel04062520543D

  9  8  0  0  0  0  0  0  0  0999 V2000
   -8.0410  -18.7960   -5.6290 C   0  0  0  0  0  0  0  0  0  0  0  0
   -8.4740  -18.6040   -4.4700 O   0  0  0  0  0  0  0  0  0  0  0  0
   -8.8030  -18.7950   -6.6250 O   0  0  0  0  0  0  0  0  0  0  0  0
   -6.5560  -19.0120   -5.8160 C   0  0  1  0  0  0  0  0  0  0  0  0
   -6.2500  -20.0810   -6.7330 O   0  0  0  0  0  0  0  0  0  0  0  0
   -5.9220  -17.7230   -6.3280 C   0  0  0  0  0  0  0  0  0  0  0  0
   -4.7400  -18.0340   -7.2250 C   0  0  0  0  0  0  0  0  0  0  0  0
   -4.6700  -17.4320   -8.3280 O   0  0  0  0  0  0  0  0  0  0  0  0
   -3.8890  -18.8710   -6.8270 O   0  0  0  0  0  0  0  0  0  0  0  0
  1  2  1  0  0  0  0
  1  3  2  0  0  0  0
  1  4  1  0  0  0  0
  4  5  1  6  0  0  0
  4  6  1  0  0  0  0
  6  7  1  0  0  0  0
  7  8  1  0  0  0  0
  7  9  2  0  0  0  0
M  END
