4K5Z_A
 OpenBabel04062520543D

 11 12  0  0  0  0  0  0  0  0999 V2000
  -11.1500  -17.2230   -3.6590 Cl  0  0  0  0  0  0  0  0  0  0  0  0
  -11.6770  -15.7020   -2.9880 C   0  0  0  0  0  0  0  0  0  0  0  0
  -11.1890  -14.5000   -3.4970 C   0  0  0  0  0  0  0  0  0  0  0  0
  -11.6030  -13.2890   -2.9670 C   0  0  0  0  0  0  0  0  0  0  0  0
  -12.5040  -13.2820   -1.9240 C   0  0  0  0  0  0  0  0  0  0  0  0
  -13.1470  -12.1700   -1.1260 C   0  0  0  0  0  0  0  0  0  0  0  0
  -14.0170  -12.8400   -0.1430 N   0  0  0  0  0  0  0  0  0  0  0  0
  -13.9240  -14.1840   -0.3150 C   0  0  0  0  0  0  0  0  0  0  0  0
  -14.5090  -15.0470    0.3270 O   0  0  0  0  0  0  0  0  0  0  0  0
  -12.9960  -14.4890   -1.4090 C   0  0  0  0  0  0  0  0  0  0  0  0
  -12.5800  -15.7100   -1.9450 C   0  0  0  0  0  0  0  0  0  0  0  0
  1  2  1  0  0  0  0
  2  3  2  0  0  0  0
  2 11  1  0  0  0  0
  3  4  1  0  0  0  0
  4  5  2  0  0  0  0
  5  6  1  0  0  0  0
  5 10  1  0  0  0  0
  6  7  2  0  0  0  0
  7  8  1  0  0  0  0
  8  9  2  0  0  0  0
  8 10  1  0  0  0  0
 10 11  2  0  0  0  0
M  END
