4K60_A
 OpenBabel04062520543D

 14 14  0  0  0  0  0  0  0  0999 V2000
    6.4590  -23.3060    9.2750 C   0  0  0  0  0  0  0  0  0  0  0  0
    6.8010  -22.1810   10.2450 C   0  0  2  0  0  0  0  0  0  0  0  0
    5.6490  -21.3260   10.4550 N   0  0  0  0  0  0  0  0  0  0  0  0
    8.0010  -21.3890    9.7320 C   0  0  1  0  0  0  0  0  0  0  0  0
    8.3850  -20.4280   10.6870 O   0  0  0  0  0  0  0  0  0  0  0  0
    9.1660  -22.3250    9.4430 C   0  0  2  0  0  0  0  0  0  0  0  0
   10.2260  -21.6000    8.8630 O   0  0  0  0  0  0  0  0  0  0  0  0
    8.7090  -23.4170    8.4860 C   0  0  2  0  0  0  0  0  0  0  0  0
    7.5950  -24.1080    9.0310 O   0  0  0  0  0  0  0  0  0  0  0  0
    9.8250  -24.4120    8.1630 C   0  0  0  0  0  0  0  0  0  0  0  0
   10.0650  -25.2620    9.2640 O   0  0  0  0  0  0  0  0  0  0  0  0
    4.9700  -21.3470   11.6000 C   0  0  0  0  0  0  0  0  0  0  0  0
    5.0840  -22.2410   12.4380 O   0  0  0  0  0  0  0  0  0  0  0  0
    4.0330  -20.2060   11.8430 C   0  0  0  0  0  0  0  0  0  0  0  0
  1  2  1  0  0  0  0
  1  9  1  0  0  0  0
  2  3  1  6  0  0  0
  2  4  1  0  0  0  0
  3 12  1  0  0  0  0
  4  5  1  1  0  0  0
  4  6  1  0  0  0  0
  6  7  1  6  0  0  0
  6  8  1  0  0  0  0
  8  9  1  0  0  0  0
  8 10  1  1  0  0  0
 10 11  1  0  0  0  0
 12 13  2  0  0  0  0
 12 14  1  0  0  0  0
M  END
