4K60_A
 OpenBabel04062520543D

 11 12  0  0  0  0  0  0  0  0999 V2000
  -11.0660  -13.1520   -4.1440 C   0  0  0  0  0  0  0  0  0  0  0  0
  -10.7360  -14.4660   -4.4030 C   0  0  0  0  0  0  0  0  0  0  0  0
  -11.2880  -15.4720   -3.6300 C   0  0  0  0  0  0  0  0  0  0  0  0
  -12.1540  -15.1480   -2.6110 C   0  0  0  0  0  0  0  0  0  0  0  0
  -12.9020  -15.9940   -1.6090 C   0  0  0  0  0  0  0  0  0  0  0  0
  -13.6680  -15.0020   -0.7720 C   0  0  0  0  0  0  0  0  0  0  0  0
  -14.4070  -15.2720    0.1580 O   0  0  0  0  0  0  0  0  0  0  0  0
  -13.3650  -13.7720   -1.2440 N   0  0  0  0  0  0  0  0  0  0  0  0
  -12.4840  -13.8270   -2.3280 C   0  0  0  0  0  0  0  0  0  0  0  0
  -11.9280  -12.8120   -3.1160 C   0  0  0  0  0  0  0  0  0  0  0  0
  -10.3000  -11.8030   -5.2300 Br  0  0  0  0  0  0  0  0  0  0  0  0
  1  2  1  0  0  0  0
  1 10  2  0  0  0  0
  1 11  1  0  0  0  0
  2  3  2  0  0  0  0
  3  4  1  0  0  0  0
  4  5  2  0  0  0  0
  4  9  1  0  0  0  0
  5  6  1  0  0  0  0
  6  7  2  0  0  0  0
  6  8  1  0  0  0  0
  8  9  2  0  0  0  0
  9 10  1  0  0  0  0
M  END
