4K69_A
 OpenBabel04062520543D

 30 33  0  0  0  0  0  0  0  0999 V2000
   -6.9230  -21.4070   -8.4900 C   0  0  0  0  0  0  0  0  0  0  0  0
   -7.3900  -20.1710   -7.7120 C   0  0  0  0  0  0  0  0  0  0  0  0
   -7.3920  -18.9750   -8.6630 C   0  0  0  0  0  0  0  0  0  0  0  0
   -7.4460  -17.6720   -7.8680 C   0  0  1  0  0  0  0  0  0  0  0  0
   -7.0990  -16.5090   -8.8130 C   0  0  0  0  0  0  0  0  0  0  0  0
   -7.5890  -15.1740   -8.3150 C   0  0  0  0  0  0  0  0  0  0  0  0
   -7.4360  -14.8500   -7.1640 O   0  0  0  0  0  0  0  0  0  0  0  0
   -8.1940  -14.3270   -9.1620 O   0  0  0  0  0  0  0  0  0  0  0  0
   -8.7820  -17.4990   -7.2720 N   0  0  0  0  0  0  0  0  0  0  0  0
   -9.0280  -17.4060   -5.9490 C   0  0  0  0  0  0  0  0  0  0  0  0
   -8.1920  -17.4650   -5.0670 O   0  0  0  0  0  0  0  0  0  0  0  0
  -10.3500  -17.2290   -5.7350 N   0  0  0  0  0  0  0  0  0  0  0  0
  -11.0140  -17.1010   -4.4300 C   0  0  0  0  0  0  0  0  0  0  0  0
  -11.2770  -15.6560   -4.0700 C   0  0  0  0  0  0  0  0  0  0  0  0
  -10.7310  -14.6270   -4.8160 C   0  0  0  0  0  0  0  0  0  0  0  0
  -10.9920  -13.3160   -4.4590 C   0  0  0  0  0  0  0  0  0  0  0  0
  -11.7810  -13.0110   -3.3750 C   0  0  0  0  0  0  0  0  0  0  0  0
  -12.3170  -14.0450   -2.6220 C   0  0  0  0  0  0  0  0  0  0  0  0
  -13.1300  -13.9990   -1.4950 N   0  0  0  0  0  0  0  0  0  0  0  0
  -13.4710  -15.2200   -1.0610 C   0  0  0  0  0  0  0  0  0  0  0  0
  -14.1770  -15.4870   -0.1100 O   0  0  0  0  0  0  0  0  0  0  0  0
  -12.8020  -16.2100   -1.9830 C   0  0  0  0  0  0  0  0  0  0  0  0
  -12.0660  -15.3590   -2.9840 C   0  0  0  0  0  0  0  0  0  0  0  0
  -10.9930  -17.2270   -6.9610 C   0  0  0  0  0  0  0  0  0  0  0  0
  -12.3340  -17.0910   -7.3060 C   0  0  0  0  0  0  0  0  0  0  0  0
  -12.6880  -17.1230   -8.6380 C   0  0  0  0  0  0  0  0  0  0  0  0
  -11.7220  -17.2890   -9.6180 C   0  0  0  0  0  0  0  0  0  0  0  0
  -10.3880  -17.4140   -9.2770 C   0  0  0  0  0  0  0  0  0  0  0  0
  -10.0100  -17.3910   -7.9410 C   0  0  0  0  0  0  0  0  0  0  0  0
  -10.2650  -11.8860   -5.4510 Br  0  0  0  0  0  0  0  0  0  0  0  0
  1  2  1  0  0  0  0
  2  3  1  0  0  0  0
  4  3  1  6  0  0  0
  4  5  1  0  0  0  0
  4  9  1  0  0  0  0
  5  6  1  0  0  0  0
  6  7  1  0  0  0  0
  6  8  2  0  0  0  0
  9 10  1  0  0  0  0
  9 29  1  0  0  0  0
 10 11  2  0  0  0  0
 10 12  1  0  0  0  0
 12 13  1  0  0  0  0
 12 24  1  0  0  0  0
 13 14  1  0  0  0  0
 14 15  2  0  0  0  0
 14 23  1  0  0  0  0
 15 16  1  0  0  0  0
 16 17  2  0  0  0  0
 16 30  1  0  0  0  0
 17 18  1  0  0  0  0
 18 19  2  0  0  0  0
 18 23  1  0  0  0  0
 19 20  1  0  0  0  0
 20 21  2  0  0  0  0
 20 22  1  0  0  0  0
 22 23  2  0  0  0  0
 24 25  2  0  0  0  0
 24 29  1  0  0  0  0
 25 26  1  0  0  0  0
 26 27  2  0  0  0  0
 27 28  1  0  0  0  0
 28 29  2  0  0  0  0
M  END
