7H61_A
 OpenBabel04062513013D

 37 41  0  0  0  0  0  0  0  0999 V2000
  -10.0160  -15.5620   -7.6490 C   0  0  2  0  0  0  0  0  0  0  0  0
   -8.6690  -16.2600   -7.5800 C   0  0  1  0  0  0  0  0  0  0  0  0
  -10.6070  -15.1740   -6.3150 C   0  0  0  0  0  0  0  0  0  0  0  0
  -10.8570  -16.1130   -5.3340 N   0  0  0  0  0  0  0  0  0  0  0  0
  -10.9890  -13.9370   -5.8850 C   0  0  0  0  0  0  0  0  0  0  0  0
  -11.5260  -14.1030   -4.5620 C   0  0  0  0  0  0  0  0  0  0  0  0
  -11.4180  -15.4700   -4.2460 C   0  0  0  0  0  0  0  0  0  0  0  0
  -11.8480  -15.9750   -3.0280 C   0  0  0  0  0  0  0  0  0  0  0  0
  -12.3820  -15.1080   -2.0780 C   0  0  0  0  0  0  0  0  0  0  0  0
  -12.4970  -13.7530   -2.3850 C   0  0  0  0  0  0  0  0  0  0  0  0
  -12.0640  -13.2470   -3.6040 C   0  0  0  0  0  0  0  0  0  0  0  0
   -8.4360  -17.5070   -7.0500 C   0  0  2  0  0  0  0  0  0  0  0  0
   -7.0210  -17.9830   -7.2100 C   0  0  2  0  0  0  0  0  0  0  0  0
   -6.3250  -16.7700   -7.8490 C   0  0  0  0  0  0  0  0  0  0  0  0
   -7.4050  -15.7460   -8.1010 C   0  0  0  0  0  0  0  0  0  0  0  0
   -9.2780  -18.3620   -6.4750 O   0  0  0  0  0  0  0  0  0  0  0  0
   -7.2340  -14.6600   -8.6450 O   0  0  0  0  0  0  0  0  0  0  0  0
  -12.8900  -15.6370   -0.7580 C   0  0  0  0  0  0  0  0  0  0  0  0
  -11.4920  -17.2880  -10.7140 C   0  0  0  0  0  0  0  0  0  0  0  0
   -6.4930  -21.5720   -8.3840 C   0  0  0  0  0  0  0  0  0  0  0  0
   -7.0010  -21.5270   -9.6670 C   0  0  0  0  0  0  0  0  0  0  0  0
   -7.5100  -20.3420  -10.1610 C   0  0  0  0  0  0  0  0  0  0  0  0
   -7.5180  -19.2040   -9.3680 C   0  0  0  0  0  0  0  0  0  0  0  0
   -7.0060  -19.2350   -8.0740 C   0  0  0  0  0  0  0  0  0  0  0  0
   -6.5020  -20.4360   -7.5890 C   0  0  0  0  0  0  0  0  0  0  0  0
  -12.7740  -17.5830  -10.2940 C   0  0  0  0  0  0  0  0  0  0  0  0
  -13.1770  -17.2200   -9.0250 C   0  0  0  0  0  0  0  0  0  0  0  0
  -12.2940  -16.5800   -8.1690 C   0  0  0  0  0  0  0  0  0  0  0  0
  -11.0030  -16.2660   -8.5830 C   0  0  0  0  0  0  0  0  0  0  0  0
  -10.6090  -16.6430   -9.8640 C   0  0  0  0  0  0  0  0  0  0  0  0
  -14.3610  -16.0030   -0.9090 C   0  0  0  0  0  0  0  0  0  0  0  0
  -10.9540  -12.6080   -6.5930 C   0  0  0  0  0  0  0  0  0  0  0  0
  -12.1850  -12.4140   -7.4670 C   0  0  0  0  0  0  0  0  0  0  0  0
  -12.1350  -11.1770   -8.2340 N   0  0  0  0  0  0  0  0  0  0  0  0
  -13.0810  -10.8180   -9.1050 C   0  0  0  0  0  0  0  0  0  0  0  0
  -13.1840   -9.6600   -9.5080 O   0  0  0  0  0  0  0  0  0  0  0  0
  -14.0100  -11.9050   -9.5690 C   0  0  0  0  0  0  0  0  0  0  0  0
  1  3  1  1  0  0  0
  1 29  1  0  0  0  0
  2  1  1  6  0  0  0
  2 12  1  0  0  0  0
  2 15  1  0  0  0  0
  3  4  1  0  0  0  0
  3  5  2  0  0  0  0
  4  7  1  0  0  0  0
  5  6  1  0  0  0  0
  5 32  1  0  0  0  0
  6  7  2  0  0  0  0
  6 11  1  0  0  0  0
  7  8  1  0  0  0  0
  8  9  2  0  0  0  0
  9 10  1  0  0  0  0
  9 18  1  0  0  0  0
 10 11  2  0  0  0  0
 12 13  1  0  0  0  0
 12 16  1  6  0  0  0
 13 14  1  0  0  0  0
 13 24  1  6  0  0  0
 14 15  1  0  0  0  0
 15 17  2  0  0  0  0
 18 31  1  0  0  0  0
 19 26  2  0  0  0  0
 19 30  1  0  0  0  0
 20 21  2  0  0  0  0
 20 25  1  0  0  0  0
 21 22  1  0  0  0  0
 22 23  2  0  0  0  0
 23 24  1  0  0  0  0
 24 25  2  0  0  0  0
 26 27  1  0  0  0  0
 27 28  2  0  0  0  0
 28 29  1  0  0  0  0
 29 30  2  0  0  0  0
 32 33  1  0  0  0  0
 33 34  1  0  0  0  0
 34 35  1  0  0  0  0
 35 36  2  0  0  0  0
 35 37  1  0  0  0  0
M  END
