7H62_A
 OpenBabel04062520543D

 31 34  0  0  0  0  0  0  0  0999 V2000
  -10.1570  -13.6150   -7.0310 S   0  0  0  0  0  0  0  0  0  0  0  0
  -10.9370  -13.7420   -5.4810 C   0  0  0  0  0  0  0  0  0  0  0  0
  -11.2710  -12.3230   -4.5610 S   0  0  0  0  0  0  0  0  0  0  0  0
  -11.3760  -14.8560   -4.8160 C   0  0  0  0  0  0  0  0  0  0  0  0
  -13.0780  -14.8690   -9.4220 C   0  0  0  0  0  0  0  0  0  0  0  0
  -11.9820  -14.6200   -3.5360 C   0  0  0  0  0  0  0  0  0  0  0  0
  -12.4700  -16.1560   -9.9070 C   0  0  0  0  0  0  0  0  0  0  0  0
  -11.0820  -14.4160   -8.0900 N   0  0  0  0  0  0  0  0  0  0  0  0
  -11.9890  -13.2390   -3.2700 C   0  0  0  0  0  0  0  0  0  0  0  0
  -12.4020  -14.0620   -8.4980 C   0  0  0  0  0  0  0  0  0  0  0  0
  -14.3610  -14.5180   -9.8340 C   0  0  0  0  0  0  0  0  0  0  0  0
  -10.1550  -12.2310   -7.3840 O   0  0  0  0  0  0  0  0  0  0  0  0
   -8.9220  -14.3270   -6.9280 O   0  0  0  0  0  0  0  0  0  0  0  0
  -14.9950  -13.3790   -9.3340 C   0  0  0  0  0  0  0  0  0  0  0  0
  -12.5330  -15.4900   -2.5980 C   0  0  0  0  0  0  0  0  0  0  0  0
  -13.0270  -12.9230   -7.9970 C   0  0  0  0  0  0  0  0  0  0  0  0
  -12.5340  -12.7370   -2.0920 C   0  0  0  0  0  0  0  0  0  0  0  0
  -18.9490  -12.2960  -10.6260 N   0  0  0  0  0  0  0  0  0  0  0  0
  -14.3050  -12.5920   -8.4130 C   0  0  0  0  0  0  0  0  0  0  0  0
  -16.3650  -13.0060   -9.7820 C   0  0  0  0  0  0  0  0  0  0  0  0
  -13.0590  -14.9550   -1.4460 C   0  0  0  0  0  0  0  0  0  0  0  0
  -11.1880  -16.2060   -5.4460 C   0  0  0  0  0  0  0  0  0  0  0  0
  -13.0790  -13.6110   -1.1670 C   0  0  0  0  0  0  0  0  0  0  0  0
  -18.0510  -11.3740  -10.2680 C   0  0  0  0  0  0  0  0  0  0  0  0
  -18.5570  -13.5740  -10.5640 C   0  0  0  0  0  0  0  0  0  0  0  0
  -16.7700  -11.6740   -9.8460 C   0  0  0  0  0  0  0  0  0  0  0  0
  -17.2970  -13.9710  -10.1560 C   0  0  0  0  0  0  0  0  0  0  0  0
  -13.2750  -16.8430  -10.7140 F   0  0  0  0  0  0  0  0  0  0  0  0
  -11.3450  -15.9480  -10.5810 F   0  0  0  0  0  0  0  0  0  0  0  0
  -12.1610  -16.9860   -8.9060 F   0  0  0  0  0  0  0  0  0  0  0  0
  -13.5900  -15.8080   -0.5390 F   0  0  0  0  0  0  0  0  0  0  0  0
  1  2  1  0  0  0  0
  1  8  1  0  0  0  0
  1 12  2  0  0  0  0
  1 13  2  0  0  0  0
  2  3  1  0  0  0  0
  2  4  2  0  0  0  0
  3  9  1  0  0  0  0
  4  6  1  0  0  0  0
  4 22  1  0  0  0  0
  5  7  1  0  0  0  0
  5 10  2  0  0  0  0
  5 11  1  0  0  0  0
  6  9  2  0  0  0  0
  6 15  1  0  0  0  0
  7 28  1  0  0  0  0
  7 29  1  0  0  0  0
  7 30  1  0  0  0  0
  8 10  1  0  0  0  0
  9 17  1  0  0  0  0
 10 16  1  0  0  0  0
 11 14  2  0  0  0  0
 14 19  1  0  0  0  0
 14 20  1  0  0  0  0
 15 21  2  0  0  0  0
 16 19  2  0  0  0  0
 17 23  2  0  0  0  0
 18 24  2  0  0  0  0
 18 25  1  0  0  0  0
 20 26  2  0  0  0  0
 20 27  1  0  0  0  0
 21 23  1  0  0  0  0
 21 31  1  0  0  0  0
 24 26  1  0  0  0  0
 25 27  2  0  0  0  0
M  END
