7H63_A
 OpenBabel04062520543D

  4  3  0  0  0  0  0  0  0  0999 V2000
  -18.0170   -5.2180   -5.8790 O   0  0  0  0  0  0  0  0  0  0  0  0
  -18.4710   -4.0540   -8.1910 C   0  0  0  0  0  0  0  0  0  0  0  0
  -19.0590   -6.6430   -7.8140 C   0  0  0  0  0  0  0  0  0  0  0  0
  -19.1020   -5.1130   -6.9120 S   0  0  0  0  0  0  0  0  0  0  0  0
  1  4  1  0  0  0  0
  2  4  1  0  0  0  0
  3  4  1  0  0  0  0
M  END
