7H65_A
 OpenBabel04062513013D

  4  3  0  0  0  0  0  0  0  0999 V2000
    3.1870  -28.4340   -1.0730 O   0  0  0  0  0  0  0  0  0  0  0  0
    3.8770  -30.9610   -1.1140 C   0  0  0  0  0  0  0  0  0  0  0  0
    2.5000  -29.9760    0.9320 C   0  0  0  0  0  0  0  0  0  0  0  0
    3.7910  -29.4690   -0.1630 S   0  0  0  0  0  0  0  0  0  0  0  0
  1  4  1  0  0  0  0
  2  4  1  0  0  0  0
  3  4  1  0  0  0  0
M  END
