7H68_A
 OpenBabel04062520543D

 14 13  0  0  0  0  0  0  0  0999 V2000
  -17.3320    0.9290    9.7780 C   0  0  0  0  0  0  0  0  0  0  0  0
  -18.6650    1.0120    9.3060 O   0  0  0  0  0  0  0  0  0  0  0  0
  -16.6080   -0.0960    8.9060 C   0  0  0  0  0  0  0  0  0  0  0  0
  -17.4500   -0.7270    7.9380 O   0  0  0  0  0  0  0  0  0  0  0  0
  -16.1110   -1.1970    9.7890 C   0  0  0  0  0  0  0  0  0  0  0  0
  -17.2100   -1.5560   10.5930 O   0  0  0  0  0  0  0  0  0  0  0  0
  -19.1450    1.6700    9.8600 H   0  0  0  0  0  0  0  0  0  0  0  0
  -16.9260   -1.4110    7.4750 H   0  0  0  0  0  0  0  0  0  0  0  0
  -17.9820   -1.7390   10.0290 H   0  0  0  0  0  0  0  0  0  0  0  0
  -15.7710    0.3980    8.4080 H   0  0  0  0  0  0  0  0  0  0  0  0
  -16.8310    1.8940    9.7080 H   0  0  0  0  0  0  0  0  0  0  0  0
  -17.3290    0.6400   10.8310 H   0  0  0  0  0  0  0  0  0  0  0  0
  -15.8070   -2.0450    9.1760 H   0  0  0  0  0  0  0  0  0  0  0  0
  -15.2610   -0.8500   10.3750 H   0  0  0  0  0  0  0  0  0  0  0  0
  1  2  1  0  0  0  0
  1  3  1  0  0  0  0
  1 11  1  0  0  0  0
  1 12  1  0  0  0  0
  2  7  1  0  0  0  0
  3  4  1  0  0  0  0
  3  5  1  0  0  0  0
  3 10  1  0  0  0  0
  4  8  1  0  0  0  0
  5  6  1  0  0  0  0
  5 13  1  0  0  0  0
  5 14  1  0  0  0  0
  6  9  1  0  0  0  0
M  END
