7H6A_A
 OpenBabel04062513013D

 30 33  0  0  0  0  0  0  0  0999 V2000
  -10.4550  -17.1270   -6.5080 N   0  0  0  0  0  0  0  0  0  0  0  0
   -8.8280  -17.5160   -8.0130 C   0  0  0  0  0  0  0  0  0  0  0  0
   -9.0870  -17.2460   -6.6990 C   0  0  0  0  0  0  0  0  0  0  0  0
  -10.0910  -17.5130   -8.7020 C   0  0  0  0  0  0  0  0  0  0  0  0
  -11.0780  -17.2580   -7.7410 C   0  0  0  0  0  0  0  0  0  0  0  0
  -11.1450  -16.7640   -5.2820 C   0  0  0  0  0  0  0  0  0  0  0  0
   -7.4750  -17.7330   -8.6450 C   0  0  0  0  0  0  0  0  0  0  0  0
   -7.3860  -19.0780   -9.3240 C   0  0  0  0  0  0  0  0  0  0  0  0
   -8.1170  -17.1830   -5.6110 C   0  0  0  0  0  0  0  0  0  0  0  0
  -11.2060  -15.2670   -5.0550 C   0  0  0  0  0  0  0  0  0  0  0  0
  -12.4320  -17.2120   -8.0730 C   0  0  0  0  0  0  0  0  0  0  0  0
  -10.4760  -17.7200  -10.0330 C   0  0  0  0  0  0  0  0  0  0  0  0
  -11.7860  -14.7370   -3.8630 C   0  0  0  0  0  0  0  0  0  0  0  0
   -7.1680  -20.1460   -8.5460 N   0  0  0  0  0  0  0  0  0  0  0  0
   -7.5190  -19.1780  -10.5220 O   0  0  0  0  0  0  0  0  0  0  0  0
   -7.0520  -16.6200   -5.7330 O   0  0  0  0  0  0  0  0  0  0  0  0
  -11.8210  -17.6770  -10.3340 C   0  0  0  0  0  0  0  0  0  0  0  0
  -11.8350  -13.3160   -3.6840 C   0  0  0  0  0  0  0  0  0  0  0  0
   -8.4210  -17.8940   -4.5640 O   0  0  0  0  0  0  0  0  0  0  0  0
  -12.8120  -17.4240   -9.3890 C   0  0  0  0  0  0  0  0  0  0  0  0
  -10.7450  -14.3940   -6.0260 C   0  0  0  0  0  0  0  0  0  0  0  0
  -10.8040  -13.0140   -5.8410 C   0  0  0  0  0  0  0  0  0  0  0  0
   -7.0780  -21.4880   -9.1180 C   0  0  0  0  0  0  0  0  0  0  0  0
   -7.0090  -20.0610   -7.1150 C   0  0  0  0  0  0  0  0  0  0  0  0
  -12.3100  -15.5590   -2.8280 C   0  0  0  0  0  0  0  0  0  0  0  0
  -11.3140  -12.4800   -4.6960 C   0  0  0  0  0  0  0  0  0  0  0  0
  -12.3810  -12.7950   -2.4880 C   0  0  0  0  0  0  0  0  0  0  0  0
  -12.8520  -15.0100   -1.6960 C   0  0  0  0  0  0  0  0  0  0  0  0
  -12.8950  -13.6300   -1.5320 C   0  0  0  0  0  0  0  0  0  0  0  0
  -12.1950  -17.8620  -11.6440 F   0  0  0  0  0  0  0  0  0  0  0  0
  1  3  1  0  0  0  0
  1  5  1  0  0  0  0
  1  6  1  0  0  0  0
  2  3  2  0  0  0  0
  2  4  1  0  0  0  0
  2  7  1  0  0  0  0
  3  9  1  0  0  0  0
  4  5  2  0  0  0  0
  4 12  1  0  0  0  0
  5 11  1  0  0  0  0
  6 10  1  0  0  0  0
  7  8  1  0  0  0  0
  8 14  1  0  0  0  0
  8 15  2  0  0  0  0
  9 16  1  0  0  0  0
  9 19  1  0  0  0  0
 10 13  2  0  0  0  0
 10 21  1  0  0  0  0
 11 20  2  0  0  0  0
 12 17  2  0  0  0  0
 13 18  1  0  0  0  0
 13 25  1  0  0  0  0
 14 23  1  0  0  0  0
 14 24  1  0  0  0  0
 17 20  1  0  0  0  0
 17 30  1  0  0  0  0
 18 26  2  0  0  0  0
 18 27  1  0  0  0  0
 21 22  2  0  0  0  0
 22 26  1  0  0  0  0
 25 28  2  0  0  0  0
 27 29  2  0  0  0  0
 28 29  1  0  0  0  0
M  END
