7H6I_A
 OpenBabel04062513013D

 30 33  0  0  0  0  0  0  0  0999 V2000
  -10.6210  -16.8200   -6.4660 N   0  0  0  0  0  0  0  0  0  0  0  0
   -9.0320  -17.2760   -8.0040 C   0  0  0  0  0  0  0  0  0  0  0  0
   -9.2610  -17.0310   -6.6760 C   0  0  0  0  0  0  0  0  0  0  0  0
  -10.3010  -17.2150   -8.6670 C   0  0  0  0  0  0  0  0  0  0  0  0
  -11.2600  -16.9090   -7.6950 C   0  0  0  0  0  0  0  0  0  0  0  0
   -7.4570  -20.2100   -8.0040 S   0  0  0  0  0  0  0  0  0  0  0  0
  -11.2870  -16.4940   -5.2040 C   0  0  0  0  0  0  0  0  0  0  0  0
   -8.2990  -17.0420   -5.5600 C   0  0  0  0  0  0  0  0  0  0  0  0
   -7.7010  -17.5940   -8.6550 C   0  0  0  0  0  0  0  0  0  0  0  0
  -11.3980  -15.0090   -4.9350 C   0  0  0  0  0  0  0  0  0  0  0  0
   -7.6670  -18.9980   -9.0600 N   0  0  0  0  0  0  0  0  0  0  0  0
  -12.6010  -16.7580   -8.0190 C   0  0  0  0  0  0  0  0  0  0  0  0
  -10.7030  -17.3700   -9.9940 C   0  0  0  0  0  0  0  0  0  0  0  0
   -8.2920  -19.9480   -6.8740 O   0  0  0  0  0  0  0  0  0  0  0  0
   -7.6480  -21.4220   -8.7360 O   0  0  0  0  0  0  0  0  0  0  0  0
  -11.9980  -14.5310   -3.7270 C   0  0  0  0  0  0  0  0  0  0  0  0
   -7.2340  -16.4770   -5.5710 O   0  0  0  0  0  0  0  0  0  0  0  0
  -12.0410  -17.2110  -10.2810 C   0  0  0  0  0  0  0  0  0  0  0  0
  -12.0860  -13.1260   -3.5090 C   0  0  0  0  0  0  0  0  0  0  0  0
   -5.7960  -20.1500   -7.4580 C   0  0  0  0  0  0  0  0  0  0  0  0
   -8.7170  -17.7960   -4.5620 O   0  0  0  0  0  0  0  0  0  0  0  0
  -12.9960  -16.9200   -9.3360 C   0  0  0  0  0  0  0  0  0  0  0  0
  -10.9360  -14.0960   -5.8590 C   0  0  0  0  0  0  0  0  0  0  0  0
  -11.0160  -12.7300   -5.6390 C   0  0  0  0  0  0  0  0  0  0  0  0
  -12.5130  -15.3920   -2.7240 C   0  0  0  0  0  0  0  0  0  0  0  0
  -11.5860  -12.2450   -4.4990 C   0  0  0  0  0  0  0  0  0  0  0  0
  -12.6940  -12.6520   -2.3210 C   0  0  0  0  0  0  0  0  0  0  0  0
  -13.0660  -14.8900   -1.5770 C   0  0  0  0  0  0  0  0  0  0  0  0
  -13.1670  -13.5240   -1.3820 C   0  0  0  0  0  0  0  0  0  0  0  0
  -12.4390  -17.3760  -11.5730 F   0  0  0  0  0  0  0  0  0  0  0  0
  1  3  1  0  0  0  0
  1  5  1  0  0  0  0
  1  7  1  0  0  0  0
  2  3  2  0  0  0  0
  2  4  1  0  0  0  0
  2  9  1  0  0  0  0
  3  8  1  0  0  0  0
  4  5  2  0  0  0  0
  4 13  1  0  0  0  0
  5 12  1  0  0  0  0
  6 11  1  0  0  0  0
  6 14  2  0  0  0  0
  6 15  2  0  0  0  0
  6 20  1  0  0  0  0
  7 10  1  0  0  0  0
  8 17  1  0  0  0  0
  8 21  1  0  0  0  0
  9 11  1  0  0  0  0
 10 16  2  0  0  0  0
 10 23  1  0  0  0  0
 12 22  2  0  0  0  0
 13 18  2  0  0  0  0
 16 19  1  0  0  0  0
 16 25  1  0  0  0  0
 18 22  1  0  0  0  0
 18 30  1  0  0  0  0
 19 26  2  0  0  0  0
 19 27  1  0  0  0  0
 23 24  2  0  0  0  0
 24 26  1  0  0  0  0
 25 28  2  0  0  0  0
 27 29  2  0  0  0  0
 28 29  1  0  0  0  0
M  END
