9GBH_A
 OpenBabel04062520543D

 32 34  0  0  0  0  0  0  0  0999 V2000
  -11.1220  -12.8200   -6.1660 N   0  0  0  0  0  0  0  0  0  0  0  0
  -12.3290  -13.0450   -6.8200 C   0  0  0  0  0  0  0  0  0  0  0  0
  -12.6890  -12.1610   -7.8760 N   0  0  0  0  0  0  0  0  0  0  0  0
  -11.9740  -11.2480   -8.2250 N   0  0  0  0  0  0  0  0  0  0  0  0
  -10.8120  -10.9830   -7.6620 C   0  0  0  0  0  0  0  0  0  0  0  0
  -10.3490  -11.7380   -6.5780 C   0  0  0  0  0  0  0  0  0  0  0  0
   -9.2830  -11.5080   -5.9890 O   0  0  0  0  0  0  0  0  0  0  0  0
  -13.0770  -13.9630   -6.4940 O   0  0  0  0  0  0  0  0  0  0  0  0
  -10.0310   -9.7950   -8.2860 C   0  0  0  0  0  0  0  0  0  0  0  0
   -8.8060   -9.8900   -8.2150 O   0  0  0  0  0  0  0  0  0  0  0  0
  -10.5980   -8.9580   -9.0050 O   0  0  0  0  0  0  0  0  0  0  0  0
  -12.5300  -14.5600   -1.9660 C   0  0  0  0  0  0  0  0  0  0  0  0
  -10.6310  -13.6550   -5.0860 C   0  0  0  0  0  0  0  0  0  0  0  0
  -12.7950  -13.2870   -1.4320 C   0  0  0  0  0  0  0  0  0  0  0  0
  -15.5390  -13.5800   -9.7180 C   0  0  0  0  0  0  0  0  0  0  0  0
  -16.4270  -12.4880   -9.6340 C   0  0  0  0  0  0  0  0  0  0  0  0
  -15.9930  -11.3300   -8.9950 C   0  0  0  0  0  0  0  0  0  0  0  0
  -14.7280  -11.2630   -8.4290 C   0  0  0  0  0  0  0  0  0  0  0  0
  -13.8760  -12.3420   -8.5230 C   0  0  0  0  0  0  0  0  0  0  0  0
  -14.2470  -13.5390   -9.1370 C   0  0  0  0  0  0  0  0  0  0  0  0
  -17.7080  -12.4820  -10.1600 O   0  0  0  0  0  0  0  0  0  0  0  0
  -18.2260  -13.7760  -10.5510 C   0  0  0  0  0  0  0  0  0  0  0  0
  -16.8480  -10.2760   -8.9330 O   0  0  0  0  0  0  0  0  0  0  0  0
  -16.3000   -9.0490   -8.4620 C   0  0  0  0  0  0  0  0  0  0  0  0
  -12.3530  -12.1030   -2.0510 C   0  0  0  0  0  0  0  0  0  0  0  0
  -11.6680  -12.1810   -3.2700 C   0  0  0  0  0  0  0  0  0  0  0  0
  -11.4120  -13.4840   -3.7940 C   0  0  0  0  0  0  0  0  0  0  0  0
  -11.8570  -14.6540   -3.1830 C   0  0  0  0  0  0  0  0  0  0  0  0
  -13.0550  -15.8510   -1.2930 C   0  0  0  0  0  0  0  0  0  0  0  0
  -13.9230  -16.3600   -2.1120 F   0  0  0  0  0  0  0  0  0  0  0  0
  -12.1490  -16.7890   -0.9580 F   0  0  0  0  0  0  0  0  0  0  0  0
  -13.7060  -15.5270   -0.2330 F   0  0  0  0  0  0  0  0  0  0  0  0
  1  2  1  0  0  0  0
  1  6  1  0  0  0  0
  1 13  1  0  0  0  0
  2  3  1  0  0  0  0
  2  8  2  0  0  0  0
  3  4  1  0  0  0  0
  3 19  1  0  0  0  0
  4  5  2  0  0  0  0
  5  6  1  0  0  0  0
  5  9  1  0  0  0  0
  6  7  2  0  0  0  0
  9 10  1  0  0  0  0
  9 11  2  0  0  0  0
 12 14  2  0  0  0  0
 12 28  1  0  0  0  0
 12 29  1  0  0  0  0
 13 27  1  0  0  0  0
 14 25  1  0  0  0  0
 15 16  2  0  0  0  0
 15 20  1  0  0  0  0
 16 17  1  0  0  0  0
 16 21  1  0  0  0  0
 17 18  2  0  0  0  0
 17 23  1  0  0  0  0
 18 19  1  0  0  0  0
 19 20  2  0  0  0  0
 21 22  1  0  0  0  0
 23 24  1  0  0  0  0
 25 26  2  0  0  0  0
 26 27  1  0  0  0  0
 27 28  2  0  0  0  0
 29 30  1  0  0  0  0
 29 31  1  0  0  0  0
 29 32  1  0  0  0  0
M  END
