9GC1_A
 OpenBabel04062520543D

 14 14  0  0  0  0  0  0  0  0999 V2000
    6.4500  -23.2590    9.2240 C   0  0  0  0  0  0  0  0  0  0  0  0
    6.7730  -22.1960   10.2680 C   0  0  2  0  0  0  0  0  0  0  0  0
    5.6070  -21.3970   10.5680 N   0  0  0  0  0  0  0  0  0  0  0  0
    7.9210  -21.3150    9.7790 C   0  0  1  0  0  0  0  0  0  0  0  0
    8.2390  -20.3930   10.8140 O   0  0  0  0  0  0  0  0  0  0  0  0
    9.1320  -22.1600    9.4030 C   0  0  2  0  0  0  0  0  0  0  0  0
   10.0810  -21.3750    8.6850 O   0  0  0  0  0  0  0  0  0  0  0  0
    8.7350  -23.3270    8.5030 C   0  0  2  0  0  0  0  0  0  0  0  0
    7.6130  -24.0440    9.0560 O   0  0  0  0  0  0  0  0  0  0  0  0
    9.8520  -24.3340    8.3520 C   0  0  0  0  0  0  0  0  0  0  0  0
   10.0170  -24.7190    6.9890 O   0  0  0  0  0  0  0  0  0  0  0  0
    4.8980  -21.4090   11.6980 C   0  0  0  0  0  0  0  0  0  0  0  0
    4.1490  -20.4800   11.9640 O   0  0  0  0  0  0  0  0  0  0  0  0
    4.9850  -22.6230   12.5760 C   0  0  0  0  0  0  0  0  0  0  0  0
  1  2  1  0  0  0  0
  1  9  1  0  0  0  0
  2  3  1  6  0  0  0
  2  4  1  0  0  0  0
  3 12  1  0  0  0  0
  4  5  1  1  0  0  0
  4  6  1  0  0  0  0
  6  7  1  6  0  0  0
  6  8  1  0  0  0  0
  8  9  1  0  0  0  0
  8 10  1  1  0  0  0
 10 11  1  0  0  0  0
 12 13  2  0  0  0  0
 12 14  1  0  0  0  0
M  END
