9GC1_A
 OpenBabel04062520543D

 14 14  0  0  0  0  0  0  0  0999 V2000
  -22.2070  -18.3810  -18.9000 C   0  0  0  0  0  0  0  0  0  0  0  0
  -22.6420  -18.9980  -20.2310 C   0  0  2  0  0  0  0  0  0  0  0  0
  -21.6640  -19.9690  -20.6900 N   0  0  0  0  0  0  0  0  0  0  0  0
  -22.8910  -17.8990  -21.2700 C   0  0  1  0  0  0  0  0  0  0  0  0
  -23.3670  -18.4750  -22.4840 O   0  0  0  0  0  0  0  0  0  0  0  0
  -23.8410  -16.8440  -20.7090 C   0  0  2  0  0  0  0  0  0  0  0  0
  -24.1060  -15.8100  -21.6620 O   0  0  0  0  0  0  0  0  0  0  0  0
  -23.1880  -16.2660  -19.4500 C   0  0  2  0  0  0  0  0  0  0  0  0
  -23.0650  -17.3290  -18.4700 O   0  0  0  0  0  0  0  0  0  0  0  0
  -23.9380  -15.1080  -18.8100 C   0  0  0  0  0  0  0  0  0  0  0  0
  -25.1920  -15.4700  -18.2160 O   0  0  0  0  0  0  0  0  0  0  0  0
  -21.8710  -21.2920  -20.6520 C   0  0  0  0  0  0  0  0  0  0  0  0
  -22.2170  -21.8640  -19.6220 O   0  0  0  0  0  0  0  0  0  0  0  0
  -21.6510  -22.0400  -21.9320 C   0  0  0  0  0  0  0  0  0  0  0  0
  1  2  1  0  0  0  0
  1  9  1  0  0  0  0
  2  3  1  6  0  0  0
  2  4  1  0  0  0  0
  3 12  1  0  0  0  0
  4  5  1  6  0  0  0
  4  6  1  0  0  0  0
  6  7  1  6  0  0  0
  6  8  1  0  0  0  0
  8  9  1  0  0  0  0
  8 10  1  1  0  0  0
 10 11  1  0  0  0  0
 12 13  2  0  0  0  0
 12 14  1  0  0  0  0
M  END
