9GCC_A
 OpenBabel04062520543D

 14 14  0  0  0  0  0  0  0  0999 V2000
  -22.0940  -18.3740  -18.7910 C   0  0  0  0  0  0  0  0  0  0  0  0
  -22.5050  -18.9550  -20.1400 C   0  0  2  0  0  0  0  0  0  0  0  0
  -21.4860  -19.8420  -20.6690 N   0  0  0  0  0  0  0  0  0  0  0  0
  -22.8280  -17.8330  -21.1290 C   0  0  1  0  0  0  0  0  0  0  0  0
  -23.4640  -18.3970  -22.2690 O   0  0  0  0  0  0  0  0  0  0  0  0
  -23.7200  -16.7630  -20.5030 C   0  0  2  0  0  0  0  0  0  0  0  0
  -23.7990  -15.7020  -21.4530 O   0  0  0  0  0  0  0  0  0  0  0  0
  -23.1080  -16.2490  -19.2000 C   0  0  2  0  0  0  0  0  0  0  0  0
  -22.9880  -17.3800  -18.3090 O   0  0  0  0  0  0  0  0  0  0  0  0
  -23.9340  -15.1900  -18.4830 C   0  0  0  0  0  0  0  0  0  0  0  0
  -25.3200  -15.5660  -18.3840 O   0  0  0  0  0  0  0  0  0  0  0  0
  -21.5700  -21.1800  -20.6050 C   0  0  0  0  0  0  0  0  0  0  0  0
  -22.2590  -21.7510  -19.7610 O   0  0  0  0  0  0  0  0  0  0  0  0
  -20.7600  -21.9500  -21.6070 C   0  0  0  0  0  0  0  0  0  0  0  0
  1  2  1  0  0  0  0
  1  9  1  0  0  0  0
  2  3  1  6  0  0  0
  2  4  1  0  0  0  0
  3 12  1  0  0  0  0
  4  5  1  6  0  0  0
  4  6  1  0  0  0  0
  6  7  1  6  0  0  0
  6  8  1  0  0  0  0
  8  9  1  0  0  0  0
  8 10  1  1  0  0  0
 10 11  1  0  0  0  0
 12 13  2  0  0  0  0
 12 14  1  0  0  0  0
M  END
