9GCD_A
 OpenBabel04062520543D

 14 14  0  0  0  0  0  0  0  0999 V2000
   11.2750  -21.0240    9.1090 C   0  0  0  0  0  0  0  0  0  0  0  0
   12.3880  -20.8150    8.0750 C   0  0  2  0  0  0  0  0  0  0  0  0
   12.8110  -22.0200    7.3780 N   0  0  0  0  0  0  0  0  0  0  0  0
   13.5880  -20.1460    8.7430 C   0  0  1  0  0  0  0  0  0  0  0  0
   14.5780  -19.8720    7.7630 O   0  0  0  0  0  0  0  0  0  0  0  0
   13.1570  -18.8710    9.4530 C   0  0  2  0  0  0  0  0  0  0  0  0
   14.2970  -18.2790   10.0720 O   0  0  0  0  0  0  0  0  0  0  0  0
   12.0890  -19.2130   10.4920 C   0  0  2  0  0  0  0  0  0  0  0  0
   10.9600  -19.8450    9.8380 O   0  0  0  0  0  0  0  0  0  0  0  0
   11.5720  -17.9770   11.2000 C   0  0  0  0  0  0  0  0  0  0  0  0
   10.3050  -18.1750   11.8310 O   0  0  0  0  0  0  0  0  0  0  0  0
   12.5280  -22.3010    6.0960 C   0  0  0  0  0  0  0  0  0  0  0  0
   11.7290  -21.6370    5.4380 O   0  0  0  0  0  0  0  0  0  0  0  0
   13.2130  -23.4980    5.5060 C   0  0  0  0  0  0  0  0  0  0  0  0
  1  2  1  0  0  0  0
  1  9  1  0  0  0  0
  2  3  1  1  0  0  0
  2  4  1  0  0  0  0
  3 12  1  0  0  0  0
  4  5  1  6  0  0  0
  4  6  1  0  0  0  0
  6  7  1  1  0  0  0
  6  8  1  0  0  0  0
  8  9  1  0  0  0  0
  8 10  1  6  0  0  0
 10 11  1  0  0  0  0
 12 13  2  0  0  0  0
 12 14  1  0  0  0  0
M  END
