16        
acceptor
O 7.257000 -23.905001 8.306000
O 7.595000 -24.108000 9.031000
O 7.582000 -24.129999 8.111000
O 7.522000 -24.013000 8.841000
O 7.372000 -23.780001 8.943000
O 7.623000 -23.745001 9.123000
O 7.466000 -23.903000 9.190000
O 7.573000 -24.059999 8.659000
O 7.337000 -23.672001 8.681000
O 7.613000 -24.044001 9.056000
O 7.347000 -23.530001 9.204000
O 7.554000 -24.388000 9.297000
O 7.189000 -23.792999 9.031000
O 7.709000 -23.881001 8.912000
O 7.590000 -23.990000 8.892000
O 7.606000 -24.344999 9.352000
