10        
acceptor
O -18.017000 -5.218000 -5.879000
O -18.728001 -5.239000 -5.889000
C -18.266001 -5.322000 -7.039000
O -17.846001 -5.545000 -5.853000
O -18.340000 -5.240000 -5.684000
C -18.129999 -5.466000 -6.886000
O -17.913000 -5.558000 -6.023000
O -18.174000 -5.194000 -5.894000
O -18.075001 -5.335000 -5.778000
O -17.847000 -5.229000 -6.017000
