9         
acceptor
O -8.421000 -17.893999 -4.564000
O -8.656000 -18.337999 -4.810000
O -8.717000 -17.796000 -4.562000
O -8.997000 -18.030001 -4.570000
O -8.591000 -17.863001 -4.543000
O -8.527000 -17.100000 -5.181000
O -8.493000 -18.011999 -4.597000
O -8.567000 -17.215000 -5.481000
O -8.494000 -17.587999 -4.835000
