13        
donor
O 9.751000 -25.188999 8.748000
O 10.065000 -25.261999 9.264000
O 10.236000 -25.171000 7.964000
O 9.955000 -25.025999 9.253000
O 9.617000 -25.174000 8.234000
O 10.155000 -24.559000 9.525000
O 10.152000 -24.976999 8.755000
O 10.021000 -24.495001 9.136000
O 9.962000 -25.454000 9.738000
O 9.600000 -24.945999 9.246000
O 10.247000 -24.885000 8.668000
O 9.930000 -25.216000 9.307000
O 9.966000 -25.518999 9.885000
