12        
donor
O -24.926001 -20.490999 -22.278999
O -23.023001 -18.729000 -22.752001
O -23.079000 -18.459999 -22.629999
O -23.093000 -18.281000 -22.715000
O -23.367001 -18.475000 -22.483999
O -23.806000 -18.959999 -22.417000
O -22.590000 -17.653999 -22.965000
O -24.399000 -19.466000 -22.406000
O -24.563000 -19.587000 -22.382999
O -23.464001 -18.396999 -22.268999
O -24.768000 -19.400000 -22.304001
O -23.336000 -18.339001 -22.233000
